version 3
run General-0-20260418-17:38:14-56628
attr configname General
attr datetime 20260418-17:38:14
attr datetimef 20260418-173814
attr experiment General
attr inifile Raven.ini
attr iterationvars ""
attr iterationvarsd ""
attr iterationvarsf ""
attr measurement ""
attr network RSUExampleScenario
attr processid 56628
attr repetition 0
attr replication #0
attr resultdir results
attr runnumber 0
attr seedset 0
config image-path ../../images
config network RSUExampleScenario
config record-eventlog true
config eventlog-message-detail-pattern *RavenVehicleApp*
config *.connectionManager.pMax 20000mW
config *.connectionManager.sat -120dBm
config *.connectionManager.alpha 2.0
config *.rsu[*].nic.phy80211p.txPower 20000mW
config *.node[*].nic.phy80211p.txPower 20000mW
config *.rsu[*].nic.phy80211p.minPowerLevel -110dBm
config *.node[*].nic.phy80211p.minPowerLevel -110dBm
config *.rsu[*].nic.mac1609_4.txQueueLimit 1000
config *.node[*].nic.mac1609_4.txQueueLimit 1000
config **.result-recording-modes all
config **.scalar-recording true
config **.vector-recording true
config cmdenv-express-mode false
config cmdenv-autoflush true
config cmdenv-status-frequency 1s
config **.cmdenv-log-level debug
config **.nic.cmdenv-log-level off
config **.phy.cmdenv-log-level off
config debug-on-errors true
config print-undisposed true
config sim-time-limit 100s
config image-path ../../images
config **.nic.mac1609_4.pcapRecorderType "\"PcapRecorder\""
config *.node[*].nic.mac1609_4.pcapRecorder.enabled true
config *.rsu[*].nic.mac1609_4.pcapRecorder.enabled true
config *.rsu[*].nic.mac1609_4.pcapRecorder.pcapFile "\"results/rsu_capture.pcap\""
config *.node[*].applType "\"RavenVehicleApp\""
config *.node[*].appl.headerLength "256 bit"
config *.node[*].appl.sendBeacons true
config *.node[*].appl.dataOnSch false
config *.node[*].appl.beaconInterval 1s
config *.node[0].appl.isAttacker true
config *.rsu[*].applType "\"RavenRSUApp\""
config *.rsu[*].appl.headerLength "256 bit"
config *.rsu[*].appl.sendBeacons true
config *.rsu[*].appl.dataOnSch false
config *.rsu[*].appl.beaconInterval 1s
config *.rsu[*].appl.beaconUserPriority 7
config *.rsu[*].appl.dataUserPriority 5
config *.connectionManager.sendDirect true
config *.connectionManager.maxInterfDist 2600m
config *.connectionManager.drawMaxIntfDist false
config *.**.nic.mac1609_4.useServiceChannel false
config *.**.nic.mac1609_4.txPower 20mW
config *.**.nic.mac1609_4.bitrate 6Mbps
config *.**.nic.phy80211p.minPowerLevel -110dBm
config *.**.nic.phy80211p.useNoiseFloor true
config *.**.nic.phy80211p.noiseFloor -98dBm
config *.**.nic.phy80211p.decider "xmldoc(\"config.xml\")"
config *.**.nic.phy80211p.analogueModels "xmldoc(\"config.xml\")"
config *.**.nic.phy80211p.usePropagationDelay true
config *.**.nic.phy80211p.antenna "xmldoc(\"antenna.xml\", \"/root/Antenna[@id='monopole']\")"
config *.playgroundSizeX 2500m
config *.playgroundSizeY 2500m
config *.playgroundSizeZ 50m
config *.annotations.draw true
config *.obstacles.obstacles "xmldoc(\"config.xml\", \"//AnalogueModel[@type='SimpleObstacleShadowing']/obstacles\")"
config *.manager.updateInterval 1s
config *.manager.host "\"localhost\""
config *.manager.port 9999
config *.manager.autoShutdown true
config *.manager.launchConfig "xmldoc(\"erlangen.launchd.xml\")"
config *.rsu[0].mobility.x 2000
config *.rsu[0].mobility.y 2000
config *.rsu[0].mobility.z 3
config *.node[*].veinsmobility.x 0
config *.node[*].veinsmobility.y 0
config *.node[*].veinsmobility.z 0
config *.node[*].veinsmobility.setHostSpeed true
config *.node[*0].veinsmobility.accidentCount 1
config *.node[*0].veinsmobility.accidentStart 73s
config *.node[*0].veinsmobility.accidentDuration 50s

vector 0 RSUExampleScenario.rsu[0].nic.mac1609_4 channelBusy:vector ETV
attr recordingmode vector
attr source org_car2x_veins_modules_mac_sigChannelBusy
vector 1 RSUExampleScenario.rsu[0].nic.mac1609_4 collisions:vector ETV
attr recordingmode vector
attr source org_car2x_veins_modules_mac_sigCollision
vector 2 RSUExampleScenario.rsu[0].nic.mac1609_4 sentPackets:vector ETV
attr recordingmode vector
attr source org_car2x_veins_modules_mac_sigSentPacket
vector 3 RSUExampleScenario.rsu[0].nic.mac1609_4 sentAcks:vector ETV
attr recordingmode vector
attr source org_car2x_veins_modules_mac_sigSentAck
vector 4 RSUExampleScenario.rsu[0].nic.mac1609_4 retriesExceeded:vector ETV
attr recordingmode vector
attr source org_car2x_veins_modules_mac_sigRetriesExceeded
vector 5 RSUExampleScenario.rsu[0].nic.phy80211p RadioState ETV
vector 6 RSUExampleScenario.rsu[0].nic.phy80211p RadioChannel ETV
vector 7 RSUExampleScenario.node[0].nic.mac1609_4 channelBusy:vector ETV
attr recordingmode vector
attr source org_car2x_veins_modules_mac_sigChannelBusy
vector 8 RSUExampleScenario.node[0].nic.mac1609_4 collisions:vector ETV
attr recordingmode vector
attr source org_car2x_veins_modules_mac_sigCollision
vector 9 RSUExampleScenario.node[0].nic.mac1609_4 sentPackets:vector ETV
attr recordingmode vector
attr source org_car2x_veins_modules_mac_sigSentPacket
vector 10 RSUExampleScenario.node[0].nic.mac1609_4 sentAcks:vector ETV
attr recordingmode vector
attr source org_car2x_veins_modules_mac_sigSentAck
vector 11 RSUExampleScenario.node[0].nic.mac1609_4 retriesExceeded:vector ETV
attr recordingmode vector
attr source org_car2x_veins_modules_mac_sigRetriesExceeded
vector 12 RSUExampleScenario.node[0].nic.phy80211p RadioState ETV
vector 13 RSUExampleScenario.node[0].nic.phy80211p RadioChannel ETV
vector 14 RSUExampleScenario.manager posx ETV
vector 15 RSUExampleScenario.manager posy ETV
vector 16 RSUExampleScenario.manager speed ETV
vector 17 RSUExampleScenario.manager acceleration ETV
vector 18 RSUExampleScenario.manager co2emission ETV
vector 19 RSUExampleScenario.node[1].nic.mac1609_4 channelBusy:vector ETV
attr recordingmode vector
attr source org_car2x_veins_modules_mac_sigChannelBusy
vector 20 RSUExampleScenario.node[1].nic.mac1609_4 collisions:vector ETV
attr recordingmode vector
attr source org_car2x_veins_modules_mac_sigCollision
vector 21 RSUExampleScenario.node[1].nic.mac1609_4 sentPackets:vector ETV
attr recordingmode vector
attr source org_car2x_veins_modules_mac_sigSentPacket
vector 22 RSUExampleScenario.node[1].nic.mac1609_4 sentAcks:vector ETV
attr recordingmode vector
attr source org_car2x_veins_modules_mac_sigSentAck
vector 23 RSUExampleScenario.node[1].nic.mac1609_4 retriesExceeded:vector ETV
attr recordingmode vector
attr source org_car2x_veins_modules_mac_sigRetriesExceeded
vector 24 RSUExampleScenario.node[1].nic.phy80211p RadioState ETV
vector 25 RSUExampleScenario.node[1].nic.phy80211p RadioChannel ETV
vector 26 RSUExampleScenario.manager posx ETV
vector 27 RSUExampleScenario.manager posy ETV
vector 28 RSUExampleScenario.manager speed ETV
vector 29 RSUExampleScenario.manager acceleration ETV
vector 30 RSUExampleScenario.manager co2emission ETV
vector 31 RSUExampleScenario.node[2].nic.mac1609_4 channelBusy:vector ETV
attr recordingmode vector
attr source org_car2x_veins_modules_mac_sigChannelBusy
vector 32 RSUExampleScenario.node[2].nic.mac1609_4 collisions:vector ETV
attr recordingmode vector
attr source org_car2x_veins_modules_mac_sigCollision
vector 33 RSUExampleScenario.node[2].nic.mac1609_4 sentPackets:vector ETV
attr recordingmode vector
attr source org_car2x_veins_modules_mac_sigSentPacket
vector 34 RSUExampleScenario.node[2].nic.mac1609_4 sentAcks:vector ETV
attr recordingmode vector
attr source org_car2x_veins_modules_mac_sigSentAck
vector 35 RSUExampleScenario.node[2].nic.mac1609_4 retriesExceeded:vector ETV
attr recordingmode vector
attr source org_car2x_veins_modules_mac_sigRetriesExceeded
vector 36 RSUExampleScenario.node[2].nic.phy80211p RadioState ETV
vector 37 RSUExampleScenario.node[2].nic.phy80211p RadioChannel ETV
vector 38 RSUExampleScenario.manager posx ETV
vector 39 RSUExampleScenario.manager posy ETV
vector 40 RSUExampleScenario.manager speed ETV
vector 41 RSUExampleScenario.manager acceleration ETV
vector 42 RSUExampleScenario.manager co2emission ETV
vector 43 RSUExampleScenario.node[3].nic.mac1609_4 channelBusy:vector ETV
attr recordingmode vector
attr source org_car2x_veins_modules_mac_sigChannelBusy
vector 44 RSUExampleScenario.node[3].nic.mac1609_4 collisions:vector ETV
attr recordingmode vector
attr source org_car2x_veins_modules_mac_sigCollision
vector 45 RSUExampleScenario.node[3].nic.mac1609_4 sentPackets:vector ETV
attr recordingmode vector
attr source org_car2x_veins_modules_mac_sigSentPacket
vector 46 RSUExampleScenario.node[3].nic.mac1609_4 sentAcks:vector ETV
attr recordingmode vector
attr source org_car2x_veins_modules_mac_sigSentAck
vector 47 RSUExampleScenario.node[3].nic.mac1609_4 retriesExceeded:vector ETV
attr recordingmode vector
attr source org_car2x_veins_modules_mac_sigRetriesExceeded
vector 48 RSUExampleScenario.node[3].nic.phy80211p RadioState ETV
vector 49 RSUExampleScenario.node[3].nic.phy80211p RadioChannel ETV
vector 50 RSUExampleScenario.manager posx ETV
vector 51 RSUExampleScenario.manager posy ETV
vector 52 RSUExampleScenario.manager speed ETV
vector 53 RSUExampleScenario.manager acceleration ETV
vector 54 RSUExampleScenario.manager co2emission ETV
vector 55 RSUExampleScenario.node[4].nic.mac1609_4 channelBusy:vector ETV
attr recordingmode vector
attr source org_car2x_veins_modules_mac_sigChannelBusy
vector 56 RSUExampleScenario.node[4].nic.mac1609_4 collisions:vector ETV
attr recordingmode vector
attr source org_car2x_veins_modules_mac_sigCollision
vector 57 RSUExampleScenario.node[4].nic.mac1609_4 sentPackets:vector ETV
attr recordingmode vector
attr source org_car2x_veins_modules_mac_sigSentPacket
vector 58 RSUExampleScenario.node[4].nic.mac1609_4 sentAcks:vector ETV
attr recordingmode vector
attr source org_car2x_veins_modules_mac_sigSentAck
vector 59 RSUExampleScenario.node[4].nic.mac1609_4 retriesExceeded:vector ETV
attr recordingmode vector
attr source org_car2x_veins_modules_mac_sigRetriesExceeded
vector 60 RSUExampleScenario.node[4].nic.phy80211p RadioState ETV
vector 61 RSUExampleScenario.node[4].nic.phy80211p RadioChannel ETV
vector 62 RSUExampleScenario.manager posx ETV
vector 63 RSUExampleScenario.manager posy ETV
vector 64 RSUExampleScenario.manager speed ETV
vector 65 RSUExampleScenario.manager acceleration ETV
vector 66 RSUExampleScenario.manager co2emission ETV
0	0	0	0
0	4	0.844278	1
0	9	0.844415	0
0	14	1.844277	1
0	21	1.844414	0
0	33	2.435352925044	1
0	40	2.435616925044	0
0	43	2.844277925044	1
0	50	2.844414925044	0
0	58	3.844276925044	1
0	65	3.844413925044	0
0	73	4.844275925044	1
0	82	4.844412925044	0
0	99	5.435351708993	1
0	110	5.435615708993	0
0	119	5.754122858683	1
0	130	5.754386858683	0
0	133	5.844274858683	1
0	142	5.844411858683	0
0	153	6.844273858683	1
0	162	6.844410858683	0
0	182	7.779501968247	1
0	197	7.779765968247	0
0	200	7.844277968247	1
0	211	7.844414968247	0
0	234	8.435353499605	1
0	249	8.435617499605	0
0	260	8.754124750923	1
0	275	8.754388750923	0
0	278	8.844276750923	1
0	289	8.844413750923	0
0	304	9.844275750923	1
0	315	9.844412750923	0
0	341	10.779513588979	1
0	360	10.779777588979	0
0	363	10.844276588979	1
0	376	10.844413588979	0
0	405	11.435274514933	1
0	426	11.435538514933	0
0	437	11.435623514932	1
0	456	11.435887514932	0
0	459	11.445890514932	1
0	472	11.446139514932	0
0	489	11.447900514932	1
0	502	11.448149514932	0
0	519	11.449897514932	1
0	532	11.450146514932	0
0	549	11.451894514932	1
0	562	11.452143514932	0
0	579	11.453891514932	1
0	592	11.454140514932	0
0	608	11.455888514932	1
0	621	11.456137514932	0
0	637	11.457898514932	1
0	650	11.458147514932	0
0	666	11.459895514932	1
0	679	11.460144514932	0
0	696	11.461892514932	1
0	709	11.462141514932	0
0	726	11.463889514932	1
0	739	11.464138514932	0
0	756	11.465899514932	1
0	769	11.466148514932	0
0	786	11.467896514932	1
0	799	11.468145514932	0
0	816	11.469893514932	1
0	829	11.470142514932	0
0	846	11.471890514932	1
0	859	11.472139514932	0
0	876	11.473900514932	1
0	889	11.474149514932	0
0	906	11.475897514932	1
0	919	11.476146514932	0
0	935	11.477894514932	1
0	948	11.478143514932	0
0	965	11.479891514932	1
0	978	11.480140514932	0
0	995	11.481888514932	1
0	1008	11.482137514932	0
0	1024	11.483898514932	1
0	1037	11.484147514932	0
0	1054	11.485895514932	1
0	1067	11.486144514932	0
0	1084	11.487892514932	1
0	1097	11.488141514932	0
0	1114	11.489889514932	1
0	1127	11.490138514932	0
0	1143	11.491899514932	1
0	1156	11.492148514932	0
0	1173	11.493896514932	1
0	1186	11.494145514932	0
0	1215	11.754130002402	1
0	1234	11.754394002402	0
0	1237	11.764397002402	1
0	1250	11.764646002402	0
0	1266	11.766407002402	1
0	1279	11.766656002402	0
0	1296	11.768404002402	1
0	1309	11.768653002402	0
0	1326	11.770401002402	1
0	1339	11.770650002402	0
0	1355	11.772398002402	1
0	1368	11.772647002402	0
0	1385	11.774395002402	1
0	1398	11.774644002402	0
0	1415	11.776405002402	1
0	1428	11.776654002402	0
0	1445	11.778402002402	1
0	1458	11.778651002402	0
0	1474	11.780399002402	1
0	1487	11.780648002402	0
0	1503	11.782396002402	1
0	1516	11.782645002402	0
0	1533	11.784406002402	1
0	1546	11.784655002402	0
0	1562	11.786403002402	1
0	1575	11.786652002402	0
0	1591	11.788400002402	1
0	1604	11.788649002402	0
0	1621	11.790397002402	1
0	1634	11.790646002402	0
0	1651	11.792407002402	1
0	1664	11.792656002402	0
0	1681	11.794404002402	1
0	1694	11.794653002402	0
0	1711	11.796401002402	1
0	1724	11.796650002402	0
0	1741	11.798398002402	1
0	1754	11.798647002402	0
0	1771	11.800395002402	1
0	1784	11.800644002402	0
0	1801	11.802405002402	1
0	1814	11.802654002402	0
0	1830	11.804402002402	1
0	1843	11.804651002402	0
0	1859	11.806399002402	1
0	1872	11.806648002402	0
0	1888	11.808396002402	1
0	1901	11.808645002402	0
0	1918	11.810406002402	1
0	1931	11.810655002402	0
0	1948	11.812403002402	1
0	1961	11.812652002402	0
0	1980	11.844274002402	1
0	1993	11.844411002402	0
0	2011	12.844273002402	1
0	2024	12.844410002402	0
0	2056	13.779510609253	1
0	2079	13.779774609253	0
0	2082	13.844273609253	1
0	2096	13.844410609253	0
0	2128	14.435271387039	1
0	2151	14.435535387039	0
0	2166	14.635183545656	1
0	2189	14.635447545656	0
0	2192	14.844272545656	1
0	2206	14.844409545656	0
0	2225	15.844271545656	1
0	2239	15.844408545656	0
0	2272	16.779508870675	1
0	2295	16.779772870675	0
0	2298	16.844271870675	1
0	2311	16.844408870675	0
0	2341	17.435269385223	1
0	2364	17.435533385223	0
0	2379	17.635181649102	1
0	2402	17.635445649102	0
0	2405	17.844270649102	1
0	2418	17.844407649102	0
0	2436	18.844269649102	1
0	2449	18.844406649102	0
0	2502	19.844268649102	1
0	2514	19.844405649102	0
0	2542	20.435278885067	1
0	2565	20.435542885067	0
0	2568	20.445545885067	1
0	2580	20.445794885067	0
0	2593	20.447555885067	1
0	2605	20.447804885067	0
0	2618	20.449552885067	1
0	2630	20.449801885067	0
0	2643	20.451549885067	1
0	2655	20.451798885067	0
0	2668	20.453546885067	1
0	2680	20.453795885067	0
0	2694	20.455543885067	1
0	2706	20.455792885067	0
0	2719	20.457553885067	1
0	2731	20.457802885067	0
0	2744	20.459550885067	1
0	2756	20.459799885067	0
0	2769	20.461547885067	1
0	2781	20.461796885067	0
0	2795	20.463544885067	1
0	2807	20.463793885067	0
0	2820	20.465554885067	1
0	2832	20.465803885067	0
0	2846	20.467551885067	1
0	2858	20.467800885067	0
0	2872	20.469548885067	1
0	2884	20.469797885067	0
0	2897	20.471545885067	1
0	2909	20.471794885067	0
0	2923	20.473555885067	1
0	2935	20.473804885067	0
0	2949	20.475552885067	1
0	2961	20.475801885067	0
0	2975	20.477549885067	1
0	2987	20.477798885067	0
0	3001	20.479546885067	1
0	3013	20.479795885067	0
0	3026	20.481543885067	1
0	3038	20.481792885067	0
0	3052	20.483553885067	1
0	3064	20.483802885067	0
0	3078	20.485550885067	1
0	3090	20.485799885067	0
0	3104	20.487547885067	1
0	3116	20.487796885067	0
0	3130	20.489544885067	1
0	3142	20.489793885067	0
0	3156	20.491554885067	1
0	3168	20.491803885067	0
0	3181	20.493551885067	1
0	3193	20.493800885067	0
0	3221	20.635173389171	1
0	3244	20.635437389171	0
0	3247	20.844275389171	1
0	3259	20.844412389171	0
0	3275	21.844274389171	1
0	3287	21.844411389171	0
0	3337	22.844273389171	1
0	3348	22.844410389171	0
0	3372	23.635171675724	1
0	3395	23.635435675724	0
0	3398	23.645438675724	1
0	3409	23.645687675724	0
0	3420	23.647448675724	1
0	3431	23.647697675724	0
0	3442	23.649445675724	1
0	3453	23.649694675724	0
0	3464	23.651442675724	1
0	3475	23.651691675724	0
0	3486	23.653439675724	1
0	3497	23.653688675724	0
0	3508	23.655436675724	1
0	3519	23.655685675724	0
0	3530	23.657446675724	1
0	3541	23.657695675724	0
0	3552	23.659443675724	1
0	3563	23.659692675724	0
0	3574	23.661440675724	1
0	3585	23.661689675724	0
0	3596	23.663437675724	1
0	3607	23.663686675724	0
0	3618	23.665447675724	1
0	3629	23.665696675724	0
0	3640	23.667444675724	1
0	3651	23.667693675724	0
0	3662	23.669441675724	1
0	3673	23.669690675724	0
0	3684	23.671438675724	1
0	3695	23.671687675724	0
0	3706	23.673448675724	1
0	3717	23.673697675724	0
0	3728	23.675445675724	1
0	3739	23.675694675724	0
0	3750	23.677442675724	1
0	3761	23.677691675724	0
0	3772	23.679439675724	1
0	3783	23.679688675724	0
0	3794	23.681436675724	1
0	3805	23.681685675724	0
0	3816	23.683446675724	1
0	3827	23.683695675724	0
0	3838	23.685443675724	1
0	3849	23.685692675724	0
0	3860	23.687440675724	1
0	3871	23.687689675724	0
0	3882	23.689437675724	1
0	3893	23.689686675724	0
0	3904	23.691447675724	1
0	3915	23.691696675724	0
0	3926	23.693444675724	1
0	3937	23.693693675724	0
0	3950	23.844278675724	1
0	3961	23.844415675724	0
0	3974	24.844277675724	1
0	3985	24.844414675724	0
0	4033	25.844276675724	1
0	4044	25.844413675724	0
0	4057	26.844275675724	1
0	4067	26.844412675724	0
0	4077	27.844274675724	1
0	4087	27.844411675724	0
0	4132	28.844273675724	1
0	4142	28.844410675724	0
0	4152	29.844272675724	1
0	4162	29.844409675724	0
0	4172	30.844271675724	1
0	4182	30.844408675724	0
0	4227	31.844270675724	1
0	4237	31.844407675724	0
0	4247	32.844269675724	1
0	4257	32.844406675724	0
0	4267	33.844268675724	1
0	4277	33.844405675724	0
0	4322	34.844267675724	1
0	4332	34.844404675724	0
0	4342	35.844266675724	1
0	4352	35.844403675724	0
0	4362	36.844278675724	1
0	4372	36.844415675724	0
0	4417	37.844277675724	1
0	4427	37.844414675724	0
0	4437	38.844276675724	1
0	4447	38.844413675724	0
0	4457	39.844275675724	1
0	4467	39.844412675724	0
0	4512	40.844274675724	1
0	4522	40.844411675724	0
0	4532	41.844273675724	1
0	4542	41.844410675724	0
0	4552	42.844272675724	1
0	4562	42.844409675724	0
0	4607	43.844271675724	1
0	4617	43.844408675724	0
0	4627	44.844270675724	1
0	4637	44.844407675724	0
0	4647	45.844269675724	1
0	4657	45.844406675724	0
0	4702	46.844268675724	1
0	4712	46.844405675724	0
0	4722	47.844267675724	1
0	4732	47.844404675724	0
0	4742	48.844266675724	1
0	4752	48.844403675724	0
0	4797	49.844278675724	1
0	4807	49.844415675724	0
0	4817	50.844277675724	1
0	4828	50.844414675724	0
0	4841	51.844276675724	1
0	4852	51.844413675724	0
0	4900	52.844275675724	1
0	4911	52.844412675724	0
0	4924	53.844274675724	1
0	4936	53.844411675724	0
0	4952	54.844273675724	1
0	4964	54.844410675724	0
0	5015	55.844272675724	1
0	5027	55.844409675724	0
0	5043	56.844271675724	1
0	5056	56.844408675724	0
0	5075	57.844270675724	1
0	5088	57.844407675724	0
0	5119	58.779507588006	1
0	5142	58.779771588006	0
0	5145	58.789774588006	1
0	5158	58.790023588006	0
0	5175	58.791784588006	1
0	5188	58.792033588006	0
0	5205	58.793781588006	1
0	5218	58.794030588006	0
0	5235	58.795778588006	1
0	5248	58.796027588006	0
0	5265	58.797775588006	1
0	5278	58.798024588006	0
0	5295	58.799772588006	1
0	5308	58.800021588006	0
0	5325	58.801782588006	1
0	5338	58.802031588006	0
0	5355	58.803779588006	1
0	5368	58.804028588006	0
0	5385	58.805776588006	1
0	5398	58.806025588006	0
0	5415	58.807773588006	1
0	5428	58.808022588006	0
0	5445	58.809783588006	1
0	5458	58.810032588006	0
0	5475	58.811780588006	1
0	5488	58.812029588006	0
0	5505	58.813777588006	1
0	5518	58.814026588006	0
0	5535	58.815774588006	1
0	5548	58.816023588006	0
0	5565	58.817784588006	1
0	5578	58.818033588006	0
0	5595	58.819781588006	1
0	5608	58.820030588006	0
0	5625	58.821778588006	1
0	5638	58.822027588006	0
0	5655	58.823775588006	1
0	5668	58.824024588006	0
0	5685	58.825772588006	1
0	5698	58.826021588006	0
0	5715	58.827782588006	1
0	5728	58.828031588006	0
0	5745	58.829779588006	1
0	5758	58.830028588006	0
0	5775	58.831776588006	1
0	5788	58.832025588006	0
0	5805	58.833773588006	1
0	5818	58.834022588006	0
0	5835	58.835783588006	1
0	5848	58.836032588006	0
0	5865	58.837780588006	1
0	5878	58.838029588006	0
0	5897	58.844275588006	1
0	5910	58.844412588006	0
0	5929	59.844274588006	1
0	5943	59.844411588006	0
0	5965	60.844273588006	1
0	5979	60.844410588006	0
0	6001	61.844272588006	1
0	6015	61.844409588006	0
0	6037	62.844271588006	1
0	6051	62.844408588006	0
0	6073	63.844270588006	1
0	6088	63.844407588006	0
0	6112	64.844269588006	1
0	6127	64.844406588006	0
0	6152	65.844268588006	1
0	6167	65.844405588006	0
0	6192	66.844267588006	1
0	6207	66.844404588006	0
0	6244	67.000010206774	1
0	6275	67.000394206774	0
0	6318	67.000453491043	1
0	6392	67.026869491043	0
0	6415	67.026929003683	1
0	6462	67.053345003683	0
0	6487	67.053404002512	1
0	6535	67.079820002512	0
0	6572	67.079879001341	1
0	6641	67.106295001341	0
0	6658	67.106354015779	1
0	6705	67.132770015779	0
0	6737	67.132829014642	1
0	6798	67.159245014642	0
0	6837	67.159304013505	1
0	6907	67.185720013505	0
0	6928	67.185779526306	1
0	6975	67.212195526306	0
0	6989	67.212267532117	1
0	7028	67.238683532117	0
0	7075	67.238742530955	1
0	7141	67.265158530955	0
0	7171	67.265217538623	1
0	7205	67.291633538623	0
0	7220	67.291692537488	1
0	7243	67.318108537488	0
0	7268	67.318167790202	1
0	7300	67.344583790202	0
0	7326	67.344655797929	1
0	7360	67.371071797929	0
0	7386	67.371131050584	1
0	7420	67.397547050584	0
0	7446	67.397606049423	1
0	7478	67.424022049423	0
0	7515	67.424081057215	1
0	7561	67.450497057215	0
0	7600	67.45055605608	1
0	7645	67.47697205608	0
0	7662	67.477031305841	1
0	7685	67.503447305841	0
0	7699	67.503506320842	1
0	7722	67.529922320842	0
0	7754	67.529981319709	1
0	7799	67.556397319709	0
0	7820	67.556469832062	1
0	7843	67.582885832062	0
0	7868	67.582944830894	1
0	7901	67.609360830894	0
0	7938	67.609419829725	1
0	7983	67.635835829725	0
0	8011	67.635907835784	1
0	8043	67.662323835784	0
0	8058	67.66238352627	1
0	8081	67.68879952627	0
0	8095	67.688858534075	1
0	8118	67.715274534075	0
0	8154	67.715333532907	1
0	8199	67.741749532907	0
0	8227	67.741808531739	1
0	8259	67.768224531739	0
0	8274	67.768283530571	1
0	8297	67.794699530571	0
0	8322	67.794758545995	1
0	8356	67.821174545995	0
0	8382	67.821246798126	1
0	8416	67.847662798126	0
0	8426	67.847733798126	1
0	8473	67.847870798126	0
0	8552	67.874209795811	1
0	8584	67.900625795811	0
0	8610	67.900684794653	1
0	8642	67.927100794653	0
0	8657	67.927159802868	1
0	8680	67.953575802868	0
0	8705	67.953635054842	1
0	8739	67.980051054842	0
0	8765	67.980110053685	1
0	8801	68.006526053685	0
0	8838	68.006585052675	1
0	8883	68.033001052675	0
0	8911	68.033060064287	1
0	8931	68.033444064287	0
0	8944	68.033516351199	1
0	8990	68.059932351199	0
0	9003	68.059991603717	1
0	9048	68.086407603717	0
0	9061	68.086466611491	1
0	9107	68.112882611491	0
0	9120	68.112954610316	1
0	9167	68.139370610316	0
0	9180	68.139429862911	1
0	9238	68.165845862911	0
0	9262	68.165917861763	1
0	9333	68.192333861763	0
0	9348	68.192418869425	1
0	9395	68.218834869425	0
0	9408	68.218894122099	1
0	9455	68.245310122099	0
0	9483	68.271479614017	1
0	9506	68.297895614017	0
0	9510	68.844278614017	1
0	9525	68.844415614017	0
0	9562	69.000008049211	1
0	9585	69.000392049211	0
0	9589	69.844267049211	1
0	9604	69.844404049211	0
0	9641	70.00000939242	1
0	9664	70.00039339242	0
0	9668	70.84426839242	1
0	9683	70.84440539242	0
0	9718	71.000010643012	1
0	9739	71.000394643012	0
0	9747	71.844269643012	1
0	9762	71.844406643012	0
0	9797	72.000011803597	1
0	9818	72.000395803597	0
0	9826	72.844270803597	1
0	9841	72.844407803597	0
0	9876	73.000012898428	1
0	9897	73.000396898428	0
0	9905	73.844271898428	1
0	9920	73.844408898428	0
0	9956	74.000013961829	1
0	9977	74.000397961829	0
0	9985	74.844272961829	1
0	10000	74.844409961829	0
0	10037	75.000002021695	1
0	10060	75.000386021695	0
0	10064	75.844274021695	1
0	10079	75.844411021695	0
0	10116	76.000003086495	1
0	10139	76.000387086495	0
0	10143	76.844275086495	1
0	10158	76.844412086495	0
0	10195	77.000004151295	1
0	10218	77.000388151295	0
0	10222	77.844276151295	1
0	10237	77.844413151295	0
0	10274	78.000005216095	1
0	10297	78.000389216095	0
0	10301	78.844277216095	1
0	10316	78.844414216095	0
0	10353	79.000006280895	1
0	10376	79.000390280895	0
0	10380	79.844278280895	1
0	10395	79.844415280895	0
0	10432	80.000007345695	1
0	10455	80.000391345695	0
0	10459	80.844266345695	1
0	10474	80.844403345695	0
0	10511	81.000008410495	1
0	10534	81.000392410495	0
0	10538	81.844267410495	1
0	10553	81.844404410495	0
0	10590	82.000009475295	1
0	10613	82.000393475295	0
0	10617	82.844268475295	1
0	10632	82.844405475295	0
0	10669	83.000010540095	1
0	10692	83.000394540095	0
0	10696	83.844269540095	1
0	10711	83.844406540095	0
0	10748	84.000011604895	1
0	10771	84.000395604895	0
0	10775	84.844270604895	1
0	10790	84.844407604895	0
0	10827	85.000012669695	1
0	10850	85.000396669695	0
0	10854	85.844271669695	1
0	10869	85.844408669695	0
0	10906	86.000013734495	1
0	10929	86.000397734495	0
0	10933	86.844272734495	1
0	10948	86.844409734495	0
0	10985	87.000001799295	1
0	11008	87.000385799295	0
0	11012	87.844273799295	1
0	11027	87.844410799295	0
0	11064	88.000002864095	1
0	11087	88.000386864095	0
0	11091	88.844274864095	1
0	11106	88.844411864095	0
0	11143	89.000003928895	1
0	11166	89.000387928895	0
0	11170	89.844275928895	1
0	11185	89.844412928895	0
0	11222	90.000004993695	1
0	11245	90.000388993695	0
0	11249	90.844276993695	1
0	11264	90.844413993695	0
0	11301	91.000006058495	1
0	11324	91.000390058495	0
0	11328	91.844278058495	1
0	11343	91.844415058495	0
0	11380	92.000007123295	1
0	11403	92.000391123295	0
0	11407	92.844266123295	1
0	11422	92.844403123295	0
0	11459	93.000008188095	1
0	11482	93.000392188095	0
0	11486	93.844267188095	1
0	11501	93.844404188095	0
0	11538	94.000009252895	1
0	11561	94.000393252895	0
0	11565	94.844268252895	1
0	11580	94.844405252895	0
0	11617	95.000010317695	1
0	11640	95.000394317695	0
0	11644	95.844269317695	1
0	11659	95.844406317695	0
0	11696	96.000011382495	1
0	11719	96.000395382495	0
0	11723	96.844270382495	1
0	11738	96.844407382495	0
0	11775	97.000012447295	1
0	11798	97.000396447295	0
0	11802	97.844271447295	1
0	11817	97.844408447295	0
0	11854	98.000013512095	1
0	11877	98.000397512095	0
0	11881	98.844272512095	1
0	11896	98.844409512095	0
0	11933	99.000001576895	1
0	11956	99.000385576895	0
0	11960	99.844273576895	1
0	11975	99.844410576895	0
2	4	0.844278	1
2	14	1.844277	1
2	43	2.844277925044	1
2	58	3.844276925044	1
2	73	4.844275925044	1
2	133	5.844274858683	1
2	153	6.844273858683	1
2	200	7.844277968247	1
2	278	8.844276750923	1
2	304	9.844275750923	1
2	363	10.844276588979	1
2	459	11.445890514932	1
2	489	11.447900514932	1
2	519	11.449897514932	1
2	549	11.451894514932	1
2	579	11.453891514932	1
2	608	11.455888514932	1
2	637	11.457898514932	1
2	666	11.459895514932	1
2	696	11.461892514932	1
2	726	11.463889514932	1
2	756	11.465899514932	1
2	786	11.467896514932	1
2	816	11.469893514932	1
2	846	11.471890514932	1
2	876	11.473900514932	1
2	906	11.475897514932	1
2	935	11.477894514932	1
2	965	11.479891514932	1
2	995	11.481888514932	1
2	1024	11.483898514932	1
2	1054	11.485895514932	1
2	1084	11.487892514932	1
2	1114	11.489889514932	1
2	1143	11.491899514932	1
2	1173	11.493896514932	1
2	1237	11.764397002402	1
2	1266	11.766407002402	1
2	1296	11.768404002402	1
2	1326	11.770401002402	1
2	1355	11.772398002402	1
2	1385	11.774395002402	1
2	1415	11.776405002402	1
2	1445	11.778402002402	1
2	1474	11.780399002402	1
2	1503	11.782396002402	1
2	1533	11.784406002402	1
2	1562	11.786403002402	1
2	1591	11.788400002402	1
2	1621	11.790397002402	1
2	1651	11.792407002402	1
2	1681	11.794404002402	1
2	1711	11.796401002402	1
2	1741	11.798398002402	1
2	1771	11.800395002402	1
2	1801	11.802405002402	1
2	1830	11.804402002402	1
2	1859	11.806399002402	1
2	1888	11.808396002402	1
2	1918	11.810406002402	1
2	1948	11.812403002402	1
2	1980	11.844274002402	1
2	2011	12.844273002402	1
2	2082	13.844273609253	1
2	2192	14.844272545656	1
2	2225	15.844271545656	1
2	2298	16.844271870675	1
2	2405	17.844270649102	1
2	2436	18.844269649102	1
2	2502	19.844268649102	1
2	2568	20.445545885067	1
2	2593	20.447555885067	1
2	2618	20.449552885067	1
2	2643	20.451549885067	1
2	2668	20.453546885067	1
2	2694	20.455543885067	1
2	2719	20.457553885067	1
2	2744	20.459550885067	1
2	2769	20.461547885067	1
2	2795	20.463544885067	1
2	2820	20.465554885067	1
2	2846	20.467551885067	1
2	2872	20.469548885067	1
2	2897	20.471545885067	1
2	2923	20.473555885067	1
2	2949	20.475552885067	1
2	2975	20.477549885067	1
2	3001	20.479546885067	1
2	3026	20.481543885067	1
2	3052	20.483553885067	1
2	3078	20.485550885067	1
2	3104	20.487547885067	1
2	3130	20.489544885067	1
2	3156	20.491554885067	1
2	3181	20.493551885067	1
2	3247	20.844275389171	1
2	3275	21.844274389171	1
2	3337	22.844273389171	1
2	3398	23.645438675724	1
2	3420	23.647448675724	1
2	3442	23.649445675724	1
2	3464	23.651442675724	1
2	3486	23.653439675724	1
2	3508	23.655436675724	1
2	3530	23.657446675724	1
2	3552	23.659443675724	1
2	3574	23.661440675724	1
2	3596	23.663437675724	1
2	3618	23.665447675724	1
2	3640	23.667444675724	1
2	3662	23.669441675724	1
2	3684	23.671438675724	1
2	3706	23.673448675724	1
2	3728	23.675445675724	1
2	3750	23.677442675724	1
2	3772	23.679439675724	1
2	3794	23.681436675724	1
2	3816	23.683446675724	1
2	3838	23.685443675724	1
2	3860	23.687440675724	1
2	3882	23.689437675724	1
2	3904	23.691447675724	1
2	3926	23.693444675724	1
2	3950	23.844278675724	1
2	3974	24.844277675724	1
2	4033	25.844276675724	1
2	4057	26.844275675724	1
2	4077	27.844274675724	1
2	4132	28.844273675724	1
2	4152	29.844272675724	1
2	4172	30.844271675724	1
2	4227	31.844270675724	1
2	4247	32.844269675724	1
2	4267	33.844268675724	1
2	4322	34.844267675724	1
2	4342	35.844266675724	1
2	4362	36.844278675724	1
2	4417	37.844277675724	1
2	4437	38.844276675724	1
2	4457	39.844275675724	1
2	4512	40.844274675724	1
2	4532	41.844273675724	1
2	4552	42.844272675724	1
2	4607	43.844271675724	1
2	4627	44.844270675724	1
2	4647	45.844269675724	1
2	4702	46.844268675724	1
2	4722	47.844267675724	1
2	4742	48.844266675724	1
2	4797	49.844278675724	1
2	4817	50.844277675724	1
2	4841	51.844276675724	1
2	4900	52.844275675724	1
2	4924	53.844274675724	1
2	4952	54.844273675724	1
2	5015	55.844272675724	1
2	5043	56.844271675724	1
2	5075	57.844270675724	1
2	5145	58.789774588006	1
2	5175	58.791784588006	1
2	5205	58.793781588006	1
2	5235	58.795778588006	1
2	5265	58.797775588006	1
2	5295	58.799772588006	1
2	5325	58.801782588006	1
2	5355	58.803779588006	1
2	5385	58.805776588006	1
2	5415	58.807773588006	1
2	5445	58.809783588006	1
2	5475	58.811780588006	1
2	5505	58.813777588006	1
2	5535	58.815774588006	1
2	5565	58.817784588006	1
2	5595	58.819781588006	1
2	5625	58.821778588006	1
2	5655	58.823775588006	1
2	5685	58.825772588006	1
2	5715	58.827782588006	1
2	5745	58.829779588006	1
2	5775	58.831776588006	1
2	5805	58.833773588006	1
2	5835	58.835783588006	1
2	5865	58.837780588006	1
2	5897	58.844275588006	1
2	5929	59.844274588006	1
2	5965	60.844273588006	1
2	6001	61.844272588006	1
2	6037	62.844271588006	1
2	6073	63.844270588006	1
2	6112	64.844269588006	1
2	6152	65.844268588006	1
2	6192	66.844267588006	1
2	8426	67.847733798126	1
2	9510	68.844278614017	1
2	9589	69.844267049211	1
2	9668	70.84426839242	1
2	9747	71.844269643012	1
2	9826	72.844270803597	1
2	9905	73.844271898428	1
2	9985	74.844272961829	1
2	10064	75.844274021695	1
2	10143	76.844275086495	1
2	10222	77.844276151295	1
2	10301	78.844277216095	1
2	10380	79.844278280895	1
2	10459	80.844266345695	1
2	10538	81.844267410495	1
2	10617	82.844268475295	1
2	10696	83.844269540095	1
2	10775	84.844270604895	1
2	10854	85.844271669695	1
2	10933	86.844272734495	1
2	11012	87.844273799295	1
2	11091	88.844274864095	1
2	11170	89.844275928895	1
2	11249	90.844276993695	1
2	11328	91.844278058495	1
2	11407	92.844266123295	1
2	11486	93.844267188095	1
2	11565	94.844268252895	1
2	11644	95.844269317695	1
2	11723	96.844270382495	1
2	11802	97.844271447295	1
2	11881	98.844272512095	1
2	11960	99.844273576895	1
7	11	1	0
7	18	1.8442799673	1
7	25	1.8444159673	0
7	29	2.4353499673	1
7	36	2.4356149673	0
7	47	2.844280877734	1
7	54	2.844416877734	0
7	62	3.844279856608	1
7	69	3.844415856608	0
7	77	4.844278827713	1
7	86	4.844414827713	0
7	93	5.435348827713	1
7	102	5.435613827713	0
7	117	5.754120987644	1
7	126	5.754384987644	0
7	137	5.844277726885	1
7	146	5.844413726885	0
7	157	6.844276686485	1
7	166	6.844412686485	0
7	180	7.779500185591	1
7	193	7.779764185591	0
7	204	7.844280748245	1
7	215	7.844416748245	0
7	226	8.435350748245	1
7	237	8.435615748245	0
7	258	8.754123014447	1
7	271	8.754387014447	0
7	282	8.844279483198	1
7	293	8.844415483198	0
7	308	9.844278436929	1
7	319	9.844414436929	0
7	339	10.779511946755	1
7	356	10.779775946755	0
7	367	10.844279228196	1
7	380	10.844415228196	0
7	403	11.435272903025	1
7	422	11.435536903025	0
7	427	11.435620903025	1
7	440	11.435885903025	0
7	463	11.445893126362	1
7	476	11.446141126362	0
7	493	11.447903126269	1
7	506	11.448151126269	0
7	523	11.449900126177	1
7	536	11.450148126177	0
7	553	11.451897126084	1
7	566	11.452145126084	0
7	583	11.453894125991	1
7	596	11.454142125991	0
7	612	11.455891125899	1
7	625	11.456139125899	0
7	641	11.457901125805	1
7	654	11.458149125805	0
7	670	11.459898125713	1
7	683	11.460146125713	0
7	700	11.46189512562	1
7	713	11.46214312562	0
7	730	11.463892125527	1
7	743	11.464140125527	0
7	760	11.465902125434	1
7	773	11.466150125434	0
7	790	11.467899125341	1
7	803	11.468147125341	0
7	820	11.469896125249	1
7	833	11.470144125249	0
7	850	11.471893125156	1
7	863	11.472141125156	0
7	880	11.473903125063	1
7	893	11.474151125063	0
7	910	11.47590012497	1
7	923	11.47614812497	0
7	939	11.477897124877	1
7	952	11.478145124877	0
7	969	11.479894124785	1
7	982	11.480142124785	0
7	999	11.481891124692	1
7	1012	11.482139124692	0
7	1028	11.483901124599	1
7	1041	11.484149124599	0
7	1058	11.485898124506	1
7	1071	11.486146124506	0
7	1088	11.487895124413	1
7	1101	11.488143124413	0
7	1118	11.489892124321	1
7	1131	11.490140124321	0
7	1147	11.491902124228	1
7	1160	11.492150124228	0
7	1177	11.493899124135	1
7	1190	11.494147124135	0
7	1211	11.754128405344	1
7	1226	11.754392405344	0
7	1241	11.764399599054	1
7	1254	11.764647599054	0
7	1270	11.766409598961	1
7	1283	11.766657598961	0
7	1300	11.768406598868	1
7	1313	11.768654598868	0
7	1330	11.770403598775	1
7	1343	11.770651598775	0
7	1359	11.772400598683	1
7	1372	11.772648598683	0
7	1389	11.77439759859	1
7	1402	11.77464559859	0
7	1419	11.776407598497	1
7	1432	11.776655598497	0
7	1449	11.778404598404	1
7	1462	11.778652598404	0
7	1478	11.780401598312	1
7	1491	11.780649598312	0
7	1507	11.782398598219	1
7	1520	11.782646598219	0
7	1537	11.784408598126	1
7	1550	11.784656598126	0
7	1566	11.786405598033	1
7	1579	11.786653598033	0
7	1595	11.78840259794	1
7	1608	11.78865059794	0
7	1625	11.790399597848	1
7	1638	11.790647597848	0
7	1655	11.792409597754	1
7	1668	11.792657597754	0
7	1685	11.794406597662	1
7	1698	11.794654597662	0
7	1715	11.796403597569	1
7	1728	11.796651597569	0
7	1745	11.798400597476	1
7	1758	11.798648597476	0
7	1775	11.800397597384	1
7	1788	11.800645597384	0
7	1805	11.802407597291	1
7	1818	11.802655597291	0
7	1834	11.804404597198	1
7	1847	11.804652597198	0
7	1863	11.806401597105	1
7	1876	11.806649597105	0
7	1892	11.808398597013	1
7	1905	11.808646597013	0
7	1922	11.810408596919	1
7	1935	11.810656596919	0
7	1952	11.812405596827	1
7	1965	11.812653596827	0
7	1984	11.844276595348	1
7	1997	11.844412595348	0
7	2015	12.844275559183	1
7	2028	12.844411559183	0
7	2054	13.779509058403	1
7	2075	13.779773058403	0
7	2126	14.435269837601	1
7	2147	14.435533837601	0
7	2164	14.635181993583	1
7	2185	14.635445993583	0
7	2268	16.77950744387	1
7	2287	16.77977144387	0
7	2339	17.435267901726	1
7	2360	17.435531901726	0
7	2377	17.635180113286	1
7	2398	17.635444113286	0
7	2477	19.779505463692	1
7	2497	19.779769463692	0
7	2540	20.435277612853	1
7	2561	20.435541612853	0
7	3219	20.635171967545	1
7	3240	20.635435967545	0
7	3310	22.779507037674	1
7	3328	22.779771037674	0
7	3370	23.635170457858	1
7	3391	23.635434457858	0
7	4006	25.779505494109	1
7	4024	25.779769494109	0
7	4107	28.779500568578	1
7	4127	28.779764568578	0
7	4202	31.779508570867	1
7	4222	31.779772570867	0
7	4295	34.779503570609	1
7	4313	34.779767570609	0
7	4390	37.779511570443	1
7	4408	37.779775570443	0
7	4485	40.779506569681	1
7	4503	40.779770569681	0
7	4580	43.779501570862	1
7	4598	43.779765570862	0
7	4675	46.779509571307	1
7	4693	46.779773571307	0
7	4770	49.779504571314	1
7	4788	49.779768571314	0
7	4824	50.84428017289	1
7	4835	50.84441617289	0
7	4845	51.844279152389	1
7	4856	51.844415152389	0
7	4873	52.779512549981	1
7	4891	52.779776549981	0
7	4904	52.844278110919	1
7	4915	52.844414110919	0
7	4928	53.844277065764	1
7	4940	53.844413065764	0
7	4956	54.844276017154	1
7	4968	54.844412017154	0
7	4988	55.779507536145	1
7	5006	55.779771536145	0
7	5019	55.844274972246	1
7	5031	55.844410972246	0
7	5047	56.844273927609	1
7	5060	56.844409927609	0
7	5079	57.844272883177	1
7	5092	57.844408883177	0
7	5115	58.779506432001	1
7	5134	58.779770432001	0
7	5149	58.789776753719	1
7	5162	58.790024753719	0
7	5179	58.79178675363	1
7	5192	58.79203475363	0
7	5209	58.793783753542	1
7	5222	58.794031753542	0
7	5239	58.795780753454	1
7	5252	58.796028753454	0
7	5269	58.797777753366	1
7	5282	58.798025753366	0
7	5299	58.799774753278	1
7	5312	58.800022753278	0
7	5329	58.801784753189	1
7	5342	58.802032753189	0
7	5359	58.803781753101	1
7	5372	58.804029753101	0
7	5389	58.805778753013	1
7	5402	58.806026753013	0
7	5419	58.807775752925	1
7	5432	58.808023752925	0
7	5449	58.809785752837	1
7	5462	58.810033752837	0
7	5479	58.811782752749	1
7	5492	58.812030752749	0
7	5509	58.813779752661	1
7	5522	58.814027752661	0
7	5539	58.815776752573	1
7	5552	58.816024752573	0
7	5569	58.817786752484	1
7	5582	58.818034752484	0
7	5599	58.819783752396	1
7	5612	58.820031752396	0
7	5629	58.821780752308	1
7	5642	58.822028752308	0
7	5659	58.82377775222	1
7	5672	58.82402575222	0
7	5689	58.825774752132	1
7	5702	58.826022752132	0
7	5719	58.827784752043	1
7	5732	58.828032752043	0
7	5749	58.829781751955	1
7	5762	58.830029751955	0
7	5779	58.831778751867	1
7	5792	58.832026751867	0
7	5809	58.833775751779	1
7	5822	58.834023751779	0
7	5839	58.83578575169	1
7	5852	58.83603375169	0
7	5869	58.837782751602	1
7	5882	58.838030751602	0
7	5901	58.844277751316	1
7	5914	58.844413751316	0
7	5933	59.844276707082	1
7	5947	59.844412707082	0
7	5969	60.844275663092	1
7	5983	60.844411663092	0
7	6005	61.844274619356	1
7	6019	61.844410619356	0
7	6041	62.844273575805	1
7	6055	62.844409575805	0
7	6077	63.844272532581	1
7	6092	63.844408532581	0
7	6116	64.844271489699	1
7	6131	64.844407489699	0
7	6156	65.844270445126	1
7	6171	65.844406445126	0
7	6196	66.844269400855	1
7	6211	66.844405400855	0
7	6232	67.000008400855	1
7	6247	67.000393400855	0
7	6290	67.000452692927	1
7	6357	67.026868692927	0
7	6413	67.026928221859	1
7	6458	67.053344221859	0
7	6481	67.053403221846	1
7	6528	67.079819221846	0
7	6558	67.079878221833	1
7	6626	67.106294221833	0
7	6652	67.106353222211	1
7	6693	67.132769222211	0
7	6718	67.132828222211	1
7	6774	67.159244222211	0
7	6817	67.159303222212	1
7	6879	67.185719222212	0
7	6926	67.185778751429	1
7	6971	67.212194751429	0
7	6985	67.212266751534	1
7	7020	67.238682751534	0
7	7050	67.238741751519	1
7	7112	67.265157751519	0
7	7156	67.265216751884	1
7	7184	67.291632751884	0
7	7214	67.291691751887	1
7	7231	67.318107751887	0
7	7258	67.318167014208	1
7	7288	67.344583014208	0
7	7311	67.344655014607	1
7	7339	67.371071014607	0
7	7374	67.371130276884	1
7	7406	67.397546276884	0
7	7436	67.397605276871	1
7	7466	67.424021276871	0
7	7494	67.424080277311	1
7	7535	67.450496277311	0
7	7580	67.450555277316	1
7	7623	67.476971277316	0
7	7660	67.477030543704	1
7	7681	67.503446543704	0
7	7693	67.503505544359	1
7	7710	67.529921544359	0
7	7735	67.529980544365	1
7	7775	67.556396544365	0
7	7818	67.556469073402	1
7	7839	67.582885073402	0
7	7858	67.582944073392	1
7	7890	67.609360073392	0
7	7926	67.609419073382	1
7	7970	67.635835073382	0
7	8001	67.635907073562	1
7	8031	67.662323073562	0
7	8056	67.662382781065	1
7	8077	67.688798781065	0
7	8093	67.688857781208	1
7	8114	67.715273781208	0
7	8138	67.715332781198	1
7	8182	67.741748781198	0
7	8221	67.741807781189	1
7	8252	67.768223781189	0
7	8272	67.76828278118	1
7	8293	67.79469878118	0
7	8308	67.794757782068	1
7	8339	67.821173782068	0
7	8374	67.821246043942	1
7	8407	67.847662043942	0
7	8437	67.847734043933	1
7	8506	67.874150043933	0
7	8542	67.874209043924	1
7	8572	67.900625043924	0
7	8600	67.900684043915	1
7	8630	67.927100043915	0
7	8651	67.927159044657	1
7	8668	67.953575044657	0
7	8692	67.953634306401	1
7	8721	67.980050306401	0
7	8752	67.980109306393	1
7	8784	68.006525306393	0
7	8822	68.00658430588	1
7	8865	68.03300030588	0
7	8888	68.03305830588	1
7	8916	68.03344330588	0
7	8938	68.033515597514	1
7	8982	68.059931597514	0
7	8999	68.059990859209	1
7	9043	68.086406859209	0
7	9055	68.086465860143	1
7	9099	68.112881860143	0
7	9114	68.112953860138	1
7	9159	68.139369860138	0
7	9176	68.139429121808	1
7	9233	68.165845121808	0
7	9252	68.165917121796	1
7	9322	68.192333121796	0
7	9342	68.192418122758	1
7	9387	68.218834122758	0
7	9404	68.218893384405	1
7	9449	68.245309384405	0
7	9481	68.271478894688	1
7	9502	68.297894894688	0
7	9514	68.844280335244	1
7	9529	68.844416335244	0
7	9550	69.000006335244	1
7	9565	69.000391335244	0
7	9593	69.84426872436	1
7	9608	69.84440472436	0
7	9629	70.00000772436	1
7	9644	70.00039272436	0
7	9672	70.844270021415	1
7	9687	70.844406021415	0
7	9708	71.000009021415	1
7	9723	71.000394021415	0
7	9751	71.844271225452	1
7	9766	71.844407225452	0
7	9787	72.000010225452	1
7	9802	72.000395225452	0
7	9830	72.844272349831	1
7	9845	72.844408349831	0
7	9866	73.000011349831	1
7	9881	73.000396349831	0
7	9909	73.844273427779	1
7	9924	73.844409427779	0
7	9946	74.000012427779	1
7	9961	74.000397427779	0
7	9989	74.844274489295	1
7	10004	74.844410489295	0
7	10025	75.000000489295	1
7	10040	75.000385489295	0
7	10068	75.844275554095	1
7	10083	75.844411554095	0
7	10104	76.000001554095	1
7	10119	76.000386554095	0
7	10147	76.844276618895	1
7	10162	76.844412618895	0
7	10183	77.000002618895	1
7	10198	77.000387618895	0
7	10226	77.844277683695	1
7	10241	77.844413683695	0
7	10262	78.000003683695	1
7	10277	78.000388683695	0
7	10305	78.844278748495	1
7	10320	78.844414748495	0
7	10341	79.000004748495	1
7	10356	79.000389748495	0
7	10384	79.844279813295	1
7	10399	79.844415813295	0
7	10420	80.000005813295	1
7	10435	80.000390813295	0
7	10463	80.844267878095	1
7	10478	80.844403878095	0
7	10499	81.000006878095	1
7	10514	81.000391878095	0
7	10542	81.844268942895	1
7	10557	81.844404942895	0
7	10578	82.000007942895	1
7	10593	82.000392942895	0
7	10621	82.844270007695	1
7	10636	82.844406007695	0
7	10657	83.000009007695	1
7	10672	83.000394007695	0
7	10700	83.844271072495	1
7	10715	83.844407072495	0
7	10736	84.000010072495	1
7	10751	84.000395072495	0
7	10779	84.844272137295	1
7	10794	84.844408137295	0
7	10815	85.000011137295	1
7	10830	85.000396137295	0
7	10858	85.844273202095	1
7	10873	85.844409202095	0
7	10894	86.000012202095	1
7	10909	86.000397202095	0
7	10937	86.844274266895	1
7	10952	86.844410266895	0
7	10973	87.000000266895	1
7	10988	87.000385266895	0
7	11016	87.844275331695	1
7	11031	87.844411331695	0
7	11052	88.000001331695	1
7	11067	88.000386331695	0
7	11095	88.844276396495	1
7	11110	88.844412396495	0
7	11131	89.000002396495	1
7	11146	89.000387396495	0
7	11174	89.844277461295	1
7	11189	89.844413461295	0
7	11210	90.000003461295	1
7	11225	90.000388461295	0
7	11253	90.844278526095	1
7	11268	90.844414526095	0
7	11289	91.000004526095	1
7	11304	91.000389526095	0
7	11332	91.844279590895	1
7	11347	91.844415590895	0
7	11368	92.000005590895	1
7	11383	92.000390590895	0
7	11411	92.844267655695	1
7	11426	92.844403655695	0
7	11447	93.000006655695	1
7	11462	93.000391655695	0
7	11490	93.844268720495	1
7	11505	93.844404720495	0
7	11526	94.000007720495	1
7	11541	94.000392720495	0
7	11569	94.844269785295	1
7	11584	94.844405785295	0
7	11605	95.000008785295	1
7	11620	95.000393785295	0
7	11648	95.844270850095	1
7	11663	95.844406850095	0
7	11684	96.000009850095	1
7	11699	96.000394850095	0
7	11727	96.844271914895	1
7	11742	96.844407914895	0
7	11763	97.000010914895	1
7	11778	97.000395914895	0
7	11806	97.844272979695	1
7	11821	97.844408979695	0
7	11842	98.000011979695	1
7	11857	98.000396979695	0
7	11885	98.844274044495	1
7	11900	98.844410044495	0
7	11921	99.000000044495	1
7	11936	99.000385044495	0
7	11964	99.844275109295	1
7	11979	99.844411109295	0
9	29	2.4353499673	1
9	93	5.435348827713	1
9	226	8.435350748245	1
9	427	11.435620903025	1
9	6232	67.000008400855	1
9	8888	68.03305830588	1
9	9550	69.000006335244	1
9	9629	70.00000772436	1
9	9708	71.000009021415	1
9	9787	72.000010225452	1
9	9866	73.000011349831	1
9	9946	74.000012427779	1
9	10025	75.000000489295	1
9	10104	76.000001554095	1
9	10183	77.000002618895	1
9	10262	78.000003683695	1
9	10341	79.000004748495	1
9	10420	80.000005813295	1
9	10499	81.000006878095	1
9	10578	82.000007942895	1
9	10657	83.000009007695	1
9	10736	84.000010072495	1
9	10815	85.000011137295	1
9	10894	86.000012202095	1
9	10973	87.000000266895	1
9	11052	88.000001331695	1
9	11131	89.000002396495	1
9	11210	90.000003461295	1
9	11289	91.000004526095	1
9	11368	92.000005590895	1
9	11447	93.000006655695	1
9	11526	94.000007720495	1
9	11605	95.000008785295	1
9	11684	96.000009850095	1
9	11763	97.000010914895	1
9	11842	98.000011979695	1
9	11921	99.000000044495	1
14	11	1	2414.8476884116
14	26	2	2411.8243290941
14	55	3	2407.1592244543
14	70	4	2402.288200066
14	90	5	2396.1394374635
14	150	6	2388.6993875942
14	171	7	2379.889221533
14	223	8	2370.1207192459
14	301	9	2360.3141803208
14	328	10	2350.5099475634
14	392	11	2341.0010868867
14	2008	12	2334.5620136983
14	2041	13	2337.6803779466
14	2113	14	2348.3497968862
14	2222	15	2358.6961674725
14	2257	16	2371.6616533546
14	2326	17	2385.4706804305
14	2433	18	2399.3588350668
14	2464	19	2412.4541998667
14	2527	20	2421.4418196582
14	3272	21	2428.417609864
14	3299	22	2431.468930052
14	3357	23	2433.1513403206
14	3971	24	2435.1237040944
14	3995	25	2437.2173147583
14	4054	26	2438.6437980286
14	4074	27	2439.5074353185
14	4094	28	2440.517813261
14	4149	29	2441.5286354903
14	4169	30	2442.5392864447
14	4189	31	2443.5505626462
14	4244	32	2444.5605657799
14	4264	33	2445.5717258434
14	4284	34	2446.582491601
14	4339	35	2447.5926917726
14	4359	36	2448.6035379785
14	4379	37	2449.6150063226
14	4434	38	2450.6249284665
14	4454	39	2449.5871033749
14	4474	40	2448.4751869324
14	4529	41	2447.3627920136
14	4549	42	2446.2486432664
14	4569	43	2445.1356778038
14	4624	44	2444.0233983273
14	4644	45	2442.9080869957
14	4664	46	2441.7929015198
14	4719	47	2440.6792437942
14	4739	48	2439.7115922048
14	4759	49	2438.7697823344
14	4814	50	2437.9002181099
14	4838	51	2432.8633025688
14	4862	52	2422.5003807434
14	4921	53	2409.4108290434
14	4949	54	2395.4884031613
14	4977	55	2381.5627957813
14	5040	56	2367.6364627138
14	5072	57	2353.73063353
14	5104	58	2339.8042664996
14	5926	59	2325.8774774711
14	5962	60	2311.9247297675
14	5998	61	2298.0030235476
14	6034	62	2284.0562168055
14	6070	63	2270.14592889
14	6109	64	2256.208384469
14	6149	65	2242.3433023074
14	6189	66	2228.5205362737
14	6230	67	2214.7699752214
14	8769	68	2201.5554575098
14	9548	69	2188.332147253
14	9627	70	2175.4241471705
14	9706	71	2163.4134602715
14	9785	72	2152.1803382802
14	9864	73	2144.540951738
14	9944	74	2140.779507856
14	10023	75	2140.3530144126
14	10102	76	2140.3530144126
14	10181	77	2140.3530144126
14	10260	78	2140.3530144126
14	10339	79	2140.3530144126
14	10418	80	2140.3530144126
14	10497	81	2140.3530144126
14	10576	82	2140.3530144126
14	10655	83	2140.3530144126
14	10734	84	2140.3530144126
14	10813	85	2140.3530144126
14	10892	86	2140.3530144126
14	10971	87	2140.3530144126
14	11050	88	2140.3530144126
14	11129	89	2140.3530144126
14	11208	90	2140.3530144126
14	11287	91	2140.3530144126
14	11366	92	2140.3530144126
14	11445	93	2140.3530144126
14	11524	94	2140.3530144126
14	11603	95	2140.3530144126
14	11682	96	2140.3530144126
14	11761	97	2140.3530144126
14	11840	98	2140.3530144126
14	11919	99	2140.3530144126
14	11998	100	2140.3530144126
15	11	1	1578.4613427464
15	26	2	1579.5715045081
15	55	3	1581.5561876604
15	70	4	1586.4898643075
15	90	5	1592.7177137369
15	150	6	1600.2534592729
15	171	7	1609.1769437566
15	223	8	1619.0710908128
15	301	9	1629.0037637418
15	328	10	1638.9341008412
15	392	11	1649.1129276818
15	2008	12	1661.0453354148
15	2041	13	1673.5713017788
15	2113	14	1682.4825292248
15	2222	15	1691.8131453674
15	2257	16	1695.5671389326
15	2326	17	1697.3762977775
15	2433	18	1698.7149431584
15	2464	19	1699.9531973498
15	2527	20	1700.8030368192
15	3272	21	1701.4822415169
15	3299	22	1709.488976148
15	3357	23	1720.5600911779
15	3971	24	1733.5392477075
15	3995	25	1747.3162704222
15	4054	26	1761.1584832035
15	4074	27	1775.0702432813
15	4094	28	1788.9649324082
15	4149	29	1802.8657313576
15	4169	30	1816.7641749373
15	4189	31	1830.6712168986
15	4244	32	1844.5607516682
15	4264	33	1858.4661965007
15	4284	34	1872.3662188528
15	4339	35	1886.2584632803
15	4359	36	1900.1595919542
15	4379	37	1914.0692762565
15	4434	38	1927.9576972555
15	4454	39	1941.831143803
15	4474	40	1955.7093056208
15	4529	41	1969.5934394449
15	4549	42	1983.4994633254
15	4569	43	1997.3907182775
15	4624	44	2011.273411233
15	4644	45	2025.193945677
15	4664	46	2039.1129092788
15	4719	47	2053.0128045725
15	4739	48	2066.8985085804
15	4759	49	2080.8134906758
15	4814	50	2094.6788440179
15	4838	51	2107.4221986122
15	4862	52	2116.4228732819
15	4921	53	2120.9425833616
15	4949	54	2120.5038392432
15	4977	55	2120.033489923
15	5040	56	2119.5631160922
15	5072	57	2119.0934347976
15	5104	58	2118.6230598195
15	5926	59	2118.1526705883
15	5962	60	2117.6814045813
15	5998	61	2117.2111870255
15	6034	62	2116.7401216794
15	6070	63	2116.2702897871
15	6109	64	2115.7995372834
15	6149	65	2114.7914296472
15	6189	66	2112.8312545856
15	6230	67	2110.6326582637
15	8769	68	2106.1509091351
15	9548	69	2101.6661779843
15	9627	70	2096.5882387422
15	9706	71	2089.5177370077
15	9785	72	2082.9049754562
15	9864	73	2078.407789221
15	9944	74	2076.1934865983
15	10023	75	2075.9424166428
15	10102	76	2075.9424166428
15	10181	77	2075.9424166428
15	10260	78	2075.9424166428
15	10339	79	2075.9424166428
15	10418	80	2075.9424166428
15	10497	81	2075.9424166428
15	10576	82	2075.9424166428
15	10655	83	2075.9424166428
15	10734	84	2075.9424166428
15	10813	85	2075.9424166428
15	10892	86	2075.9424166428
15	10971	87	2075.9424166428
15	11050	88	2075.9424166428
15	11129	89	2075.9424166428
15	11208	90	2075.9424166428
15	11287	91	2075.9424166428
15	11366	92	2075.9424166428
15	11445	93	2075.9424166428
15	11524	94	2075.9424166428
15	11603	95	2075.9424166428
15	11682	96	2075.9424166428
15	11761	97	2075.9424166428
15	11840	98	2075.9424166428
15	11919	99	2075.9424166428
15	11998	100	2075.9424166428
16	26	2	4.1061966058897
16	55	3	6.0195495591482
16	70	4	7.7148368984793
16	90	5	9.5879868385225
16	150	6	11.391389363371
16	171	7	13.513839789145
16	223	8	13.99235115225
16	301	9	13.890224446259
16	328	10	13.976677174468
16	392	11	13.994826577434
16	2008	12	13.923680325528
16	2041	13	13.923542996629
16	2113	14	13.91007151508
16	2222	15	13.964598868005
16	2257	16	13.995233640105
16	2326	17	13.952304350403
16	2433	18	13.956911946491
16	2464	19	11.503494614513
16	2527	20	7.0034946145128
16	3272	21	7.8970062485022
16	3299	22	10.10483181514
16	3357	23	11.990706169653
16	3971	24	13.981089308816
16	3995	25	13.965594365916
16	4054	26	13.989059597438
16	4074	27	13.956378436291
16	4094	28	13.910982951869
16	4149	29	13.88918493646
16	4169	30	13.908189346099
16	4189	31	13.983992603337
16	4244	32	13.890129161163
16	4264	33	13.887046969056
16	4284	34	13.876417213378
16	4339	35	13.998502501769
16	4359	36	13.934494307106
16	4379	37	13.912054133965
16	4434	38	13.900965631339
16	4454	39	13.909685057036
16	4474	40	13.973525755608
16	4529	41	13.880641966569
16	4549	42	13.996100211751
16	4569	43	13.986372594144
16	4624	44	13.897784651525
16	4644	45	13.922745489741
16	4664	46	13.981475095062
16	4719	47	13.895750305625
16	4739	48	13.884551553715
16	4759	49	13.996131014933
16	4814	50	13.935194088209
16	4838	51	13.930097484484
16	4862	52	13.948393711536
16	4921	53	13.882971800906
16	4949	54	13.87138918183
16	4977	55	13.933780807857
16	5040	56	13.942265776542
16	5072	57	13.95140511482
16	5104	58	13.886548467774
16	5926	59	13.920721456567
16	5962	60	13.906796863726
16	5998	61	13.917803910668
16	6034	62	13.924582225601
16	6070	63	13.959688465288
16	6109	64	13.957318032989
16	6149	65	13.940553226951
16	6189	66	13.987941900534
16	6230	67	13.954308879373
16	8769	68	13.923910640154
16	9548	69	13.993870949601
16	9627	70	13.879853877353
16	9706	71	13.913362397307
16	9785	72	11.339813756249
16	9864	73	6.839813756249
16	9944	74	2.339813756249
16	10023	75	0
16	10102	76	0
16	10181	77	0
16	10260	78	0
16	10339	79	0
16	10418	80	0
16	10497	81	0
16	10576	82	0
16	10655	83	0
16	10734	84	0
16	10813	85	0
16	10892	86	0
16	10971	87	0
16	11050	88	0
16	11129	89	0
16	11208	90	0
16	11287	91	0
16	11366	92	0
16	11445	93	0
16	11524	94	0
16	11603	95	0
16	11682	96	0
16	11761	97	0
16	11840	98	0
16	11919	99	0
16	11998	100	0
17	55	3	1.9133529532584
17	70	4	1.6952873393311
17	90	5	1.8731499400432
17	150	6	1.8034025248489
17	171	7	2.1224504257739
17	223	8	0.47851136310433
17	301	9	-0.1021267059911
17	328	10	0.086452728209551
17	392	11	0.018149402965792
17	2008	12	-0.071146251906175
17	2041	13	-0.0001373288989992
17	2113	14	-0.013471481548622
17	2222	15	0.054527352924923
17	2257	16	0.03063477210002
17	2326	17	-0.04292928970186
17	2433	18	0.0046075960877356
17	2464	19	-2.4534173319781
17	2527	20	-4.5
17	3272	21	0.8935116339894
17	3299	22	2.2078255666373
17	3357	23	1.8858743545134
17	3971	24	1.9903831391631
17	3995	25	-0.01549494290026
17	4054	26	0.023465231521987
17	4074	27	-0.032681161146611
17	4094	28	-0.045395484422334
17	4149	29	-0.021798015409148
17	4169	30	0.019004409639164
17	4189	31	0.075803257238585
17	4244	32	-0.093863442174623
17	4264	33	-0.0030821921071045
17	4284	34	-0.010629755677655
17	4339	35	0.12208528839052
17	4359	36	-0.064008194662165
17	4379	37	-0.022440173141659
17	4434	38	-0.011088502625935
17	4454	39	0.0087194256973451
17	4474	40	0.063840698571877
17	4529	41	-0.092883789038751
17	4549	42	0.11545824518194
17	4569	43	-0.0097276176069876
17	4624	44	-0.088587942619341
17	4644	45	0.024960838216357
17	4664	46	0.05872960532084
17	4719	47	-0.085724789437371
17	4739	48	-0.011198751910124
17	4759	49	0.11157946121879
17	4814	50	-0.06093692672439
17	4838	51	-0.0050966037251055
17	4862	52	0.018296227052343
17	4921	53	-0.065421910630539
17	4949	54	-0.011582619075197
17	4977	55	0.062391626026946
17	5040	56	0.0084849686850799
17	5072	57	0.0091393382777465
17	5104	58	-0.064856647045817
17	5926	59	0.034172988792415
17	5962	60	-0.013924592840485
17	5998	61	0.011007046941668
17	6034	62	0.0067783149331806
17	6070	63	0.035106239686721
17	6109	64	-0.0023704322986315
17	6149	65	-0.016764806038699
17	6189	66	0.047388673583045
17	6230	67	-0.033633021160494
17	8769	68	-0.030398239218631
17	9548	69	0.069960309446325
17	9627	70	-0.11401707224781
17	9706	71	0.033508519954049
17	9785	72	-2.5735486410581
17	9864	73	-4.5
17	9944	74	-4.5
17	10023	75	-2.339813756249
17	10102	76	0
17	10181	77	0
17	10260	78	0
17	10339	79	0
17	10418	80	0
17	10497	81	0
17	10576	82	0
17	10655	83	0
17	10734	84	0
17	10813	85	0
17	10892	86	0
17	10971	87	0
17	11050	88	0
17	11129	89	0
17	11208	90	0
17	11287	91	0
17	11366	92	0
17	11445	93	0
17	11524	94	0
17	11603	95	0
17	11682	96	0
17	11761	97	0
17	11840	98	0
17	11919	99	0
17	11998	100	0
18	55	3	4.1962556146115
18	70	4	4.6765885426193
18	90	5	5.9822455727343
18	150	6	6.7469998477461
18	171	7	8.9023657158011
18	223	8	3.651678681686
18	301	9	1.6857621818206
18	328	10	2.3276633668785
18	392	11	2.0995306276608
18	2008	12	1.7923040941768
18	2041	13	2.0305681317735
18	2113	14	1.9844951865828
18	2222	15	2.2187318873595
18	2257	16	2.1416854339172
18	2326	17	1.8896148890835
18	2433	18	2.0499339673421
18	2464	19	0.973
18	2527	20	0.973
18	3272	21	3.236958348016
18	3299	22	7.0694109561587
18	3357	23	7.2974163894139
18	3971	24	8.7433911631671
18	3995	25	1.9831721788576
18	4054	26	2.116835898497
18	4074	27	1.9244585801898
18	4094	28	1.8775583559564
18	4149	29	1.9545657515643
18	4169	30	2.0931646705581
18	4189	31	2.2926746988581
18	4244	32	1.7134162858001
18	4264	33	2.0169972760905
18	4284	34	1.9906840242809
18	4339	35	2.4505657766328
18	4359	36	1.8171929257885
18	4379	37	1.9546204463715
18	4434	38	1.9915808108238
18	4454	39	2.0588461919453
18	4474	40	2.2511263927624
18	4529	41	1.7159434742786
18	4549	42	2.4278953541222
18	4569	43	2.0046617225539
18	4624	44	1.7316915517555
18	4644	45	2.1147007708653
18	4664	46	2.2348405758407
18	4719	47	1.74111631249
18	4739	48	1.9895859601925
18	4759	49	2.4148159690277
18	4814	50	1.8275680369647
18	4838	51	2.0145873760113
18	4862	52	2.0950692067684
18	4921	53	1.8080099866508
18	4949	54	1.9870007069688
18	4977	55	2.2415869227426
18	5040	56	2.0614496349521
18	5072	57	2.0646020593826
18	5104	58	1.8102089718445
18	5926	59	2.1453880261281
18	5962	60	1.9826536733129
18	5998	61	2.0673636130683
18	6034	62	2.0538817544551
18	6070	63	2.1528270365066
18	6109	64	2.0265038417738
18	6149	65	1.9764402783138
18	6189	66	2.1973632197913
18	6230	67	1.9210622509023
18	8769	68	1.9290602067802
18	9548	69	2.274161950127
18	9627	70	1.645189240608
18	9706	71	2.1423493623466
18	9785	72	0.973
18	9864	73	0.973
18	9944	74	0.973
18	10023	75	0.973
18	10102	76	0.973
18	10181	77	0.973
18	10260	78	0.973
18	10339	79	0.973
18	10418	80	0.973
18	10497	81	0.973
18	10576	82	0.973
18	10655	83	0.973
18	10734	84	0.973
18	10813	85	0.973
18	10892	86	0.973
18	10971	87	0.973
18	11050	88	0.973
18	11129	89	0.973
18	11208	90	0.973
18	11287	91	0.973
18	11366	92	0.973
18	11445	93	0.973
18	11524	94	0.973
18	11603	95	0.973
18	11682	96	0.973
18	11761	97	0.973
18	11840	98	0.973
18	11919	99	0.973
18	11998	100	0.973
19	70	4	0
19	79	4.844278892722	1
19	89	4.844414892722	0
19	97	5.435349904559	1
19	106	5.435613904559	0
19	113	5.754119904559	1
19	122	5.754384904559	0
19	139	5.844277811713	1
19	149	5.844413811713	0
19	159	6.844276791614	1
19	170	6.844412791614	0
19	178	7.779500063926	1
19	189	7.779764063926	0
19	206	7.844280871546	1
19	219	7.844416871546	0
19	230	8.435351878993	1
19	241	8.435615878993	0
19	252	8.754121878993	1
19	263	8.754386878993	0
19	284	8.844279619977	1
19	297	8.844415619977	0
19	310	9.84427857939	1
19	323	9.84441457939	0
19	337	10.779511804761	1
19	352	10.779775804761	0
19	369	10.844279370309	1
19	384	10.844415370309	0
19	401	11.435272762492	1
19	418	11.435536762492	0
19	431	11.435622043645	1
19	444	11.435886043645	0
19	465	11.445893266955	1
19	480	11.446141266955	0
19	495	11.447903266861	1
19	510	11.448151266861	0
19	525	11.449900266769	1
19	540	11.450148266769	0
19	555	11.451897266676	1
19	570	11.452145266676	0
19	585	11.453894266583	1
19	600	11.454142266583	0
19	614	11.45589126649	1
19	629	11.45613926649	0
19	643	11.457901266396	1
19	658	11.458149266396	0
19	672	11.459898266303	1
19	687	11.460146266303	0
19	702	11.46189526621	1
19	717	11.46214326621	0
19	732	11.463892266117	1
19	747	11.464140266117	0
19	762	11.465902266024	1
19	777	11.466150266024	0
19	792	11.467899265931	1
19	807	11.468147265931	0
19	822	11.469896265838	1
19	837	11.470144265838	0
19	852	11.471893265745	1
19	867	11.472141265745	0
19	882	11.473903265652	1
19	897	11.474151265652	0
19	912	11.475900265559	1
19	927	11.476148265559	0
19	941	11.477897265466	1
19	956	11.478145265466	0
19	971	11.479894265373	1
19	986	11.480142265373	0
19	1001	11.48189126528	1
19	1016	11.48213926528	0
19	1030	11.483901265186	1
19	1045	11.484149265186	0
19	1060	11.485898265094	1
19	1075	11.486146265094	0
19	1090	11.487895265001	1
19	1105	11.488143265001	0
19	1120	11.489892264908	1
19	1135	11.490140264908	0
19	1149	11.491902264814	1
19	1164	11.492150264814	0
19	1179	11.493899264721	1
19	1194	11.494147264721	0
19	1205	11.754127264721	1
19	1218	11.754392264721	0
19	1243	11.764399739605	1
19	1258	11.764647739605	0
19	1272	11.766409739512	1
19	1287	11.766657739512	0
19	1302	11.768406739419	1
19	1317	11.768654739419	0
19	1332	11.770403739326	1
19	1347	11.770651739326	0
19	1361	11.772400739233	1
19	1376	11.772648739233	0
19	1391	11.77439773914	1
19	1406	11.77464573914	0
19	1421	11.776407739046	1
19	1436	11.776655739046	0
19	1451	11.778404738953	1
19	1466	11.778652738953	0
19	1480	11.78040173886	1
19	1495	11.78064973886	0
19	1509	11.782398738768	1
19	1524	11.782646738768	0
19	1539	11.784408738674	1
19	1554	11.784656738674	0
19	1568	11.786405738581	1
19	1583	11.786653738581	0
19	1597	11.788402738488	1
19	1612	11.788650738488	0
19	1627	11.790399738395	1
19	1642	11.790647738395	0
19	1657	11.792409738302	1
19	1672	11.792657738302	0
19	1687	11.794406738209	1
19	1702	11.794654738209	0
19	1717	11.796403738116	1
19	1732	11.796651738116	0
19	1747	11.798400738023	1
19	1762	11.798648738023	0
19	1777	11.80039773793	1
19	1792	11.80064573793	0
19	1807	11.802407737837	1
19	1822	11.802655737837	0
19	1836	11.804404737744	1
19	1851	11.804652737744	0
19	1865	11.806401737651	1
19	1880	11.806649737651	0
19	1894	11.808398737558	1
19	1909	11.808646737558	0
19	1924	11.810408737464	1
19	1939	11.810656737464	0
19	1954	11.812405737371	1
19	1969	11.812653737371	0
19	1986	11.844276735888	1
19	2001	11.844412735888	0
19	2017	12.844275689747	1
19	2032	12.844411689747	0
19	2050	13.779508965481	1
19	2067	13.779772965481	0
19	2087	13.844276250033	1
19	2101	13.844412250033	0
19	2124	14.435269773817	1
19	2143	14.435533773817	0
19	2162	14.635181941702	1
19	2181	14.635445941702	0
19	2197	14.84427513992	1
19	2211	14.84441113992	0
19	2229	15.844274103641	1
19	2243	15.844410103641	0
19	2264	16.779507342889	1
19	2279	16.779771342889	0
19	2337	17.435267849483	1
19	2356	17.435531849483	0
19	2375	17.635180102665	1
19	2394	17.635444102665	0
19	2473	19.779505335515	1
19	2489	19.779769335515	0
19	2538	20.435277512952	1
19	2557	20.435541512952	0
19	3217	20.635171906096	1
19	3236	20.635435906096	0
19	3306	22.779506984769	1
19	3320	22.779770984769	0
19	3368	23.635170381662	1
19	3387	23.635434381662	0
19	4002	25.779505357117	1
19	4016	25.779769357117	0
19	4103	28.77950042274	1
19	4119	28.77976442274	0
19	4196	31.779508424575	1
19	4210	31.779772424575	0
19	4291	34.779503424425	1
19	4305	34.779767424425	0
19	4386	37.779511424089	1
19	4400	37.779775424089	0
19	4481	40.779506424095	1
19	4495	40.779770424095	0
19	4576	43.779501424297	1
19	4590	43.779765424297	0
19	4671	46.779509424649	1
19	4685	46.779773424649	0
19	4766	49.779504424744	1
19	4780	49.779768424744	0
19	4869	52.779512424802	1
19	4883	52.779776424802	0
19	4932	53.844277173688	1
19	4946	53.844413173688	0
19	4958	54.844276154165	1
19	4972	54.844412154165	0
19	4984	55.779507417427	1
19	4998	55.779771417427	0
19	5021	55.844275116003	1
19	5035	55.844411116003	0
19	5049	56.844274071447	1
19	5064	56.844410071447	0
19	5081	57.844273023265	1
19	5096	57.844409023265	0
19	5113	58.779506286141	1
19	5130	58.779770286141	0
19	5151	58.789776893339	1
19	5166	58.790024893339	0
19	5181	58.791786893249	1
19	5196	58.792034893249	0
19	5211	58.79378389316	1
19	5226	58.79403189316	0
19	5241	58.79578089307	1
19	5256	58.79602889307	0
19	5271	58.797777892981	1
19	5286	58.798025892981	0
19	5301	58.799774892892	1
19	5316	58.800022892892	0
19	5331	58.801784892802	1
19	5346	58.802032892802	0
19	5361	58.803781892713	1
19	5376	58.804029892713	0
19	5391	58.805778892623	1
19	5406	58.806026892623	0
19	5421	58.807775892534	1
19	5436	58.808023892534	0
19	5451	58.809785892444	1
19	5466	58.810033892444	0
19	5481	58.811782892355	1
19	5496	58.812030892355	0
19	5511	58.813779892266	1
19	5526	58.814027892266	0
19	5541	58.815776892176	1
19	5556	58.816024892176	0
19	5571	58.817786892087	1
19	5586	58.818034892087	0
19	5601	58.819783891997	1
19	5616	58.820031891997	0
19	5631	58.821780891908	1
19	5646	58.822028891908	0
19	5661	58.823777891819	1
19	5676	58.824025891819	0
19	5691	58.82577489173	1
19	5706	58.82602289173	0
19	5721	58.82778489164	1
19	5736	58.82803289164	0
19	5751	58.82978189155	1
19	5766	58.83002989155	0
19	5781	58.831778891461	1
19	5796	58.832026891461	0
19	5811	58.833775891372	1
19	5826	58.834023891372	0
19	5841	58.835785891282	1
19	5856	58.836033891282	0
19	5871	58.837782891193	1
19	5886	58.838030891193	0
19	5903	58.844277890903	1
19	5918	58.844413890903	0
19	5935	59.844276846143	1
19	5951	59.844412846143	0
19	5971	60.844275801716	1
19	5987	60.844411801716	0
19	6007	61.844274757414	1
19	6023	61.844410757414	0
19	6043	62.844273713354	1
19	6059	62.844409713354	0
19	6079	63.844272669097	1
19	6096	63.844408669097	0
19	6118	64.844271625534	1
19	6135	64.844407625534	0
19	6158	65.844270582005	1
19	6175	65.844406582005	0
19	6198	66.844269538929	1
19	6215	66.844405538929	0
19	6236	67.000009546891	1
19	6251	67.000393546891	0
19	6277	67.000451546891	1
19	6347	67.026868546891	0
19	6411	67.026928076188	1
19	6454	67.053344076188	0
19	6475	67.053403076183	1
19	6521	67.079819076183	0
19	6552	67.079878076178	1
19	6619	67.106294076178	0
19	6646	67.106352076178	1
19	6685	67.132769076178	0
19	6707	67.132827076178	1
19	6764	67.159244076178	0
19	6807	67.159302076178	1
19	6872	67.185719076178	0
19	6924	67.185778605848	1
19	6967	67.212194605848	0
19	6981	67.212266605843	1
19	7012	67.238682605843	0
19	7032	67.238740605843	1
19	7098	67.265157605843	0
19	7148	67.265215605843	1
19	7176	67.291632605843	0
19	7208	67.291690605843	1
19	7223	67.318107605843	0
19	7251	67.318166868556	1
19	7277	67.344582868556	0
19	7303	67.344653868556	1
19	7331	67.371070868556	0
19	7370	67.371130131251	1
19	7399	67.397546131251	0
19	7429	67.397605131246	1
19	7455	67.424021131246	0
19	7481	67.424079131246	1
19	7522	67.450496131246	0
19	7566	67.450554131246	1
19	7607	67.476971131246	0
19	7658	67.477030398276	1
19	7677	67.503446398276	0
19	7687	67.503504398276	1
19	7702	67.529921398276	0
19	7724	67.529979398276	1
19	7765	67.556396398276	0
19	7816	67.556468928012	1
19	7835	67.582884928012	0
19	7856	67.582943928015	1
19	7887	67.609359928015	0
19	7908	67.609417928015	1
19	7960	67.635834928015	0
19	7990	67.635905928015	1
19	8022	67.662322928015	0
19	8054	67.662382635876	1
19	8073	67.688798635876	0
19	8091	67.688857635879	1
19	8110	67.715273635879	0
19	8124	67.715331635879	1
19	8174	67.741748635879	0
19	8215	67.741807635876	1
19	8245	67.768223635876	0
19	8270	67.768282635886	1
19	8289	67.794698635886	0
19	8301	67.794756635886	1
19	8331	67.821173635886	0
19	8366	67.821245898425	1
19	8397	67.847661898425	0
19	8421	67.847732898425	1
19	8493	67.874149898425	0
19	8531	67.874207898425	1
19	8563	67.900624898425	0
19	8593	67.900683898412	1
19	8619	67.927099898412	0
19	8645	67.927157898412	1
19	8660	67.953574898412	0
19	8688	67.953634160905	1
19	8714	67.980050160905	0
19	8748	67.980109160901	1
19	8777	68.006525160901	0
19	8806	68.006583160901	1
19	8849	68.033000160901	0
19	8895	68.033059451697	1
19	8920	68.033443451697	0
19	8932	68.033514451697	1
19	8975	68.059931451697	0
19	8995	68.059990714338	1
19	9038	68.086406714338	0
19	9049	68.086464714338	1
19	9092	68.112881714338	0
19	9108	68.112952714338	1
19	9152	68.139369714338	0
19	9172	68.139428976971	1
19	9228	68.165844976971	0
19	9241	68.165915976971	1
19	9314	68.192332976971	0
19	9336	68.192416976971	1
19	9379	68.218833976971	0
19	9400	68.2188932396	1
19	9443	68.2453092396	0
19	9479	68.271478750784	1
19	9498	68.297894750784	0
19	9516	68.844280477617	1
19	9533	68.844416477617	0
19	9554	69.000007481134	1
19	9569	69.000391481134	0
19	9595	69.844268868496	1
19	9612	69.844404868496	0
19	9633	70.000008870483	1
19	9648	70.000392870483	0
19	9674	70.844270167968	1
19	9691	70.844406167968	0
19	9712	71.000010167037	1
19	9727	71.000394167037	0
19	9753	71.844271371111	1
19	9770	71.844407371111	0
19	9791	72.000011368155	1
19	9806	72.000395368155	0
19	9832	72.84427248589	1
19	9849	72.84440848589	0
19	9870	73.000012476218	1
19	9885	73.000396476218	0
19	9911	73.844273534067	1
19	9928	73.844409534067	0
19	9950	74.000013525514	1
19	9965	74.000397525514	0
19	9991	74.844274561184	1
19	10008	74.844410561184	0
19	10029	75.000001556188	1
19	10044	75.000385556188	0
19	10070	75.844275597511	1
19	10087	75.844411597511	0
19	10108	76.000002598389	1
19	10123	76.000386598389	0
19	10149	76.844276647471	1
19	10166	76.844412647471	0
19	10187	77.000003649128	1
19	10202	77.000387649128	0
19	10228	77.844277704844	1
19	10245	77.844413704844	0
19	10266	78.000004706249	1
19	10281	78.000388706249	0
19	10307	78.844278766281	1
19	10324	78.844414766281	0
19	10345	79.000005767452	1
19	10360	79.000389767452	0
19	10386	79.84427983021	1
19	10403	79.84441583021	0
19	10424	80.000006830794	1
19	10439	80.000390830794	0
19	10465	80.84426789482	1
19	10482	80.84440389482	0
19	10503	81.000007895068	1
19	10518	81.000391895068	0
19	10544	81.844268959588	1
19	10561	81.844404959588	0
19	10582	82.000008959681	1
19	10597	82.000392959681	0
19	10623	82.844270024374	1
19	10640	82.844406024374	0
19	10661	83.000010024414	1
19	10676	83.000394024414	0
19	10702	83.844271089166	1
19	10719	83.844407089166	0
19	10740	84.00001108919	1
19	10755	84.00039508919	0
19	10781	84.844272153964	1
19	10798	84.844408153964	0
19	10819	85.000012153981	1
19	10834	85.000396153981	0
19	10860	85.844273218764	1
19	10877	85.844409218764	0
19	10898	86.000013218778	1
19	10913	86.000397218778	0
19	10939	86.844274283564	1
19	10956	86.844410283564	0
19	10977	87.000001283577	1
19	10992	87.000385283577	0
19	11018	87.844275348363	1
19	11035	87.844411348363	0
19	11056	88.000002348377	1
19	11071	88.000386348377	0
19	11097	88.844276413163	1
19	11114	88.844412413163	0
19	11135	89.000003413177	1
19	11150	89.000387413177	0
19	11176	89.844277477963	1
19	11193	89.844413477963	0
19	11214	90.000004477977	1
19	11229	90.000388477977	0
19	11255	90.844278542763	1
19	11272	90.844414542763	0
19	11293	91.000005542777	1
19	11308	91.000389542777	0
19	11334	91.844279607563	1
19	11351	91.844415607563	0
19	11372	92.000006607577	1
19	11387	92.000390607577	0
19	11413	92.844267672363	1
19	11430	92.844403672363	0
19	11451	93.000007672377	1
19	11466	93.000391672377	0
19	11492	93.844268737163	1
19	11509	93.844404737163	0
19	11530	94.000008737177	1
19	11545	94.000392737177	0
19	11571	94.844269801963	1
19	11588	94.844405801963	0
19	11609	95.000009801977	1
19	11624	95.000393801977	0
19	11650	95.844270866763	1
19	11667	95.844406866763	0
19	11688	96.000010866777	1
19	11703	96.000394866777	0
19	11729	96.844271931563	1
19	11746	96.844407931563	0
19	11767	97.000011931577	1
19	11782	97.000395931577	0
19	11808	97.844272996363	1
19	11825	97.844408996363	0
19	11846	98.000012996377	1
19	11861	98.000396996377	0
19	11887	98.844274061163	1
19	11904	98.844410061163	0
19	11925	99.000001061177	1
19	11940	99.000385061177	0
19	11966	99.844275125963	1
19	11983	99.844411125963	0
21	113	5.754119904559	1
21	252	8.754121878993	1
21	1205	11.754127264721	1
21	6277	67.000451546891	1
21	6646	67.106352076178	1
21	6707	67.132827076178	1
21	6807	67.159302076178	1
21	7032	67.238740605843	1
21	7148	67.265215605843	1
21	7208	67.291690605843	1
21	7303	67.344653868556	1
21	7481	67.424079131246	1
21	7566	67.450554131246	1
21	7687	67.503504398276	1
21	7724	67.529979398276	1
21	7908	67.609417928015	1
21	7990	67.635905928015	1
21	8124	67.715331635879	1
21	8301	67.794756635886	1
21	8421	67.847732898425	1
21	8531	67.874207898425	1
21	8645	67.927157898412	1
21	8806	68.006583160901	1
21	8932	68.033514451697	1
21	9049	68.086464714338	1
21	9108	68.112952714338	1
21	9241	68.165915976971	1
21	9336	68.192416976971	1
26	70	4	2414.8767583254
26	90	5	2411.8725636174
26	150	6	2407.2970525089
26	171	7	2402.4626210862
26	223	8	2396.3056860371
26	301	9	2388.8743536096
26	328	10	2380.097228827
26	392	11	2370.3507264333
26	2008	12	2360.5878487076
26	2041	13	2350.7849318213
26	2113	14	2341.2418729237
26	2222	15	2334.6305580324
26	2257	16	2337.3474066725
26	2326	17	2348.0525301361
26	2433	18	2358.4004780499
26	2464	19	2371.2796394398
26	2527	20	2385.0896042155
26	3272	21	2398.4992320924
26	3299	22	2411.2490396173
26	3357	23	2420.6908975872
26	3971	24	2427.6441619907
26	3995	25	2431.3031061729
26	4054	26	2432.9057056421
26	4074	27	2434.8184284659
26	4094	28	2436.9106147669
26	4149	29	2438.5030871925
26	4169	30	2439.3592782695
26	4189	31	2440.3695357858
26	4244	32	2441.3811063131
26	4264	33	2442.392311243
26	4284	34	2443.4030944014
26	4339	35	2444.4119941562
26	4359	36	2445.4232772678
26	4379	37	2446.433312725
26	4434	38	2447.44492721
26	4454	39	2448.4555198947
26	4474	40	2449.4656192663
26	4529	41	2450.4762349875
26	4549	42	2449.750434841
26	4569	43	2448.6380657093
26	4624	44	2447.5227382459
26	4644	45	2446.4088016382
26	4664	46	2445.2974247503
26	4719	47	2444.1853869355
26	4739	48	2443.0717465935
26	4759	49	2441.9582168636
26	4814	50	2440.843600617
26	4838	51	2439.8506336287
26	4862	52	2438.9089030242
26	4921	53	2438.2297834947
26	4949	54	2433.9001381031
26	4977	55	2424.208115487
26	5040	56	2411.3368038314
26	5072	57	2397.4610971988
26	5104	58	2383.5492311935
26	5926	59	2369.6241427812
26	5962	60	2355.6953302616
26	5998	61	2341.7809144936
26	6034	62	2327.8543534084
26	6070	63	2313.9093637894
26	6109	64	2299.988390115
26	6149	65	2286.0731101279
26	6189	66	2272.1516088395
26	6230	67	2258.2363727894
26	8769	68	2244.3517130112
26	9548	69	2230.543060369
26	9627	70	2216.736020042
26	9706	71	2203.4991595604
26	9785	72	2190.296200887
26	9864	73	2177.193152508
26	9944	74	2166.0294702944
26	10023	75	2157.6348596648
26	10102	76	2151.7963052773
26	10181	77	2148.1638605986
26	10260	78	2146.1798869465
26	10339	79	2145.2505492987
26	10418	80	2144.8739133769
26	10497	81	2144.7380531109
26	10576	82	2144.6897884525
26	10655	83	2144.6723973961
26	10734	84	2144.6661528173
26	10813	85	2144.6639391221
26	10892	86	2144.663144469
26	10971	87	2144.6628599317
26	11050	88	2144.6627581372
26	11129	89	2144.6627216775
26	11208	90	2144.6627102229
26	11287	91	2144.6627093545
26	11366	92	2144.6627093545
26	11445	93	2144.6627093545
26	11524	94	2144.6627093545
26	11603	95	2144.6627093545
26	11682	96	2144.6627093545
26	11761	97	2144.6627093545
26	11840	98	2144.6627093545
26	11919	99	2144.6627093545
26	11998	100	2144.6627093545
27	70	4	1578.4506684253
27	90	5	1579.5537930429
27	150	6	1581.4165868293
27	171	7	1586.3131998433
27	223	8	1592.5493268352
27	301	9	1600.0762428036
27	328	10	1608.9662610246
27	392	11	1618.8381252186
27	2008	12	1628.7265753681
27	2041	13	1638.6555796713
27	2113	14	1648.8046840783
27	2222	15	1660.6325348346
27	2257	16	1673.302407451
27	2326	17	1682.2144466238
27	2433	18	1691.5464852396
27	2464	19	1695.5100399172
27	2527	20	1697.3309412031
27	3272	21	1698.6336619575
27	3299	22	1699.8392414004
27	3357	23	1700.732032123
27	3971	24	1701.2942025904
27	3995	25	1708.3977707056
27	4054	26	1718.9436900942
27	4074	27	1731.5303788455
27	4094	28	1745.2980285306
27	4149	29	1759.118455573
27	4169	30	1773.0327916974
27	4189	31	1786.9258247288
27	4244	32	1800.8369142497
27	4264	33	1814.7429760862
27	4284	34	1828.6432377314
27	4339	35	1842.5175988656
27	4359	36	1856.4247358544
27	4379	37	1870.314715134
27	4434	38	1884.2264091596
27	4454	39	1898.1240514191
27	4474	40	1912.0149096455
27	4529	41	1925.9128687028
27	4549	42	1939.7925549038
27	4569	43	1953.6763668712
27	4624	44	1967.5971026625
27	4644	45	1981.5004787659
27	4664	46	1995.3719062423
27	4719	47	2009.2515829448
27	4739	48	2023.1512612682
27	4759	49	2037.0495590083
27	4814	50	2050.9614178902
27	4838	51	2064.8442097399
27	4862	52	2078.7580207055
27	4921	53	2092.6632240042
27	4949	54	2105.6974625792
27	4977	55	2115.3985125879
27	5040	56	2120.5055712545
27	5072	57	2120.5704686744
27	5104	58	2120.1005834807
27	5926	59	2119.6302516898
27	5962	60	2119.1597941127
27	5998	61	2118.6898227995
27	6034	62	2118.2194412667
27	6070	63	2117.7484372957
27	6109	64	2117.2782444824
27	6149	65	2116.8082439788
27	6189	66	2116.3380333455
27	6230	67	2115.8680343265
27	8769	68	2115.076237808
27	9548	69	2113.1180641344
27	9627	70	2111.1601190995
27	9706	71	2106.8101223698
27	9785	72	2102.3322935291
27	9864	73	2097.6296242531
27	9944	74	2091.0577408029
27	10023	75	2086.1159660714
27	10102	76	2082.6789012915
27	10181	77	2080.5405384628
27	10260	78	2079.3726044996
27	10339	79	2078.8255181005
27	10418	80	2078.6037984798
27	10497	81	2078.5238196868
27	10576	82	2078.495407044
27	10655	83	2078.485169204
27	10734	84	2078.4814931192
27	10813	85	2078.4801899521
27	10892	86	2078.4797221525
27	10971	87	2078.4795546494
27	11050	88	2078.4794947244
27	11129	89	2078.4794732612
27	11208	90	2078.4794665184
27	11287	91	2078.4794660071
27	11366	92	2078.4794660071
27	11445	93	2078.4794660071
27	11524	94	2078.4794660071
27	11603	95	2078.4794660071
27	11682	96	2078.4794660071
27	11761	97	2078.4794660071
27	11840	98	2078.4794660071
27	11919	99	2078.4794660071
27	11998	100	2078.4794660071
28	90	5	4.0332649588119
28	150	6	5.8265110515686
28	171	7	7.7852127750962
28	223	8	9.5658873894228
28	301	9	11.450149483434
28	328	10	13.391487500134
28	392	11	13.949883621705
28	2008	12	13.87602620427
28	2041	13	13.885232782268
28	2113	14	13.987373048679
28	2222	15	13.890608048609
28	2257	16	13.887004709987
28	2326	17	13.926980708602
28	2433	18	13.89086526999
28	2464	19	13.965056618985
28	2527	20	13.946692067499
28	3272	21	13.096956130529
28	3299	22	11.938935133475
28	3357	23	7.478102635287
28	3971	24	7.8590293780856
28	3995	25	9.5747237887329
28	4054	26	11.610744962569
28	4074	27	13.581046325949
28	4094	28	13.973211987913
28	4149	29	13.918392209036
28	4169	30	13.928662607018
28	4189	31	13.985277111761
28	4244	32	13.906023407809
28	4264	33	13.971130909426
28	4284	34	13.893635479698
28	4339	35	13.92272057577
28	4359	36	13.926848074025
28	4379	37	13.904776060146
28	4434	38	13.874779360872
28	4454	39	13.911500382989
28	4474	40	13.89608634992
28	4529	41	13.953515601074
28	4549	42	13.902247211819
28	4569	43	13.875664412908
28	4624	44	13.98682559514
28	4644	45	13.974945872892
28	4664	46	13.871210378651
28	4719	47	13.884851300523
28	4739	48	13.893495914964
28	4759	49	13.917333146422
28	4814	50	13.998359675265
28	4838	51	13.883536923684
28	4862	52	13.940237896459
28	4921	53	13.965476403411
28	4949	54	13.989670229855
28	4977	55	13.951804798429
28	5040	56	13.892850009208
28	5072	57	13.958218119799
28	5104	58	13.933717581006
28	5926	59	13.982012811573
28	5962	60	13.954506225567
28	5998	61	13.954468280503
28	6034	62	13.914126337939
28	6070	63	13.998578815588
28	6109	64	13.932968401979
28	6149	65	13.954534002345
28	6189	66	13.902721541785
28	6230	67	13.925128551477
28	8769	68	13.923595596936
28	9548	69	13.990350087087
28	9627	70	13.946136353342
28	9706	71	13.880848547374
28	9785	72	13.873358402713
28	9864	73	13.989647400954
28	9944	74	11.498589380897
28	10023	75	8.3245744933417
28	10102	76	5.5731123647549
28	10181	77	3.219849587531
28	10260	78	1.6882489662669
28	10339	79	0.72037074791722
28	10418	80	0.27007110267083
28	10497	81	0.094970415173794
28	10576	82	0.033310387862695
28	10655	83	0.012453111532048
28	10734	84	0.0043999744054475
28	10813	85	0.0015416784712998
28	10892	86	0.000568467062598
28	10971	87	0.00019750313226506
28	11050	88	7.2131407389898e-05
28	11129	89	2.5350283398416e-05
28	11208	90	0
28	11287	91	0
28	11366	92	0
28	11445	93	0
28	11524	94	0
28	11603	95	0
28	11682	96	0
28	11761	97	0
28	11840	98	0
28	11919	99	0
28	11998	100	0
29	150	6	1.7932460927567
29	171	7	1.9587017235276
29	223	8	1.7806746143266
29	301	9	1.8842620940111
29	328	10	1.9413380167005
29	392	11	0.5583961215709
29	2008	12	-0.073857417434921
29	2041	13	0.0092065779981212
29	2113	14	0.10214026641101
29	2222	15	-0.096765000070445
29	2257	16	-0.0036033386224883
29	2326	17	0.039975998615846
29	2433	18	-0.036115438612178
29	2464	19	0.074191348995083
29	2527	20	-0.018364551486448
29	3272	21	-0.8497359369701
29	3299	22	-1.158020997054
29	3357	23	-4.4608324981877
29	3971	24	0.38092674279862
29	3995	25	1.7156944106473
29	4054	26	2.0360211738362
29	4074	27	1.9703013633797
29	4094	28	0.39216566196388
29	4149	29	-0.054819778876846
29	4169	30	0.010270397982096
29	4189	31	0.056614504742901
29	4244	32	-0.079253703951837
29	4264	33	0.065107501617168
[...]
55	3799	23.681439301124	1
55	3810	23.681687301124	0
55	3821	23.683449301042	1
55	3832	23.683697301042	0
55	3843	23.685446300961	1
55	3854	23.685694300961	0
55	3865	23.68744330088	1
55	3876	23.68769130088	0
55	3887	23.689440300799	1
55	3898	23.689688300799	0
55	3909	23.691450300718	1
55	3920	23.691698300718	0
55	3931	23.693447300637	1
55	3942	23.693695300637	0
55	3955	23.844281294526	1
55	3966	23.844417294526	0
55	3978	24.84428025387	1
55	3989	24.84441625387	0
55	4008	25.779505599715	1
55	4028	25.779769599715	0
55	4037	25.844279225991	1
55	4048	25.844415225991	0
55	4105	28.779500529224	1
55	4123	28.779764529224	0
55	4200	31.779508525887	1
55	4218	31.779772525887	0
55	4297	34.779503626004	1
55	4317	34.779767626004	0
55	4392	37.779511649507	1
55	4412	37.779775649507	0
55	4487	40.779506648056	1
55	4507	40.779770648056	0
55	4582	43.779501647583	1
55	4602	43.779765647583	0
55	4677	46.779509646459	1
55	4697	46.779773646459	0
55	4772	49.779504646714	1
55	4792	49.779768646714	0
55	4875	52.779512647486	1
55	4895	52.779776647486	0
55	4990	55.77950764748	1
55	5010	55.77977164748	0
55	5117	58.779506481638	1
55	5138	58.779770481638	0
55	6085	63.844273086803	1
55	6108	63.844409086803	0
55	6124	64.844272085147	1
55	6147	64.844408085147	0
55	6164	65.844271052085	1
55	6187	65.844407052085	0
55	6204	66.844270005164	1
55	6227	66.844406005164	0
55	6242	67.000010031798	1
55	6269	67.000394031798	0
55	6283	67.000452031798	1
55	6374	67.026869031798	0
55	6409	67.026928031859	1
55	6450	67.053344031859	0
55	6473	67.053403031853	1
55	6518	67.079819031853	0
55	6542	67.079877031853	1
55	6615	67.106294031853	0
55	6656	67.106353561486	1
55	6701	67.132769561486	0
55	6711	67.132827561486	1
55	6788	67.159244561486	0
55	6811	67.159302561486	1
55	6895	67.185719561486	0
55	6922	67.185778561471	1
55	6963	67.212194561471	0
55	6987	67.212266828392	1
55	7024	67.238682828392	0
55	7036	67.238740828392	1
55	7119	67.265157828392	0
55	7150	67.265215828392	1
55	7188	67.291632828392	0
55	7218	67.291692091126	1
55	7239	67.318108091126	0
55	7260	67.31816709112	1
55	7291	67.34458309112	0
55	7305	67.34465409112	1
55	7343	67.37107109112	0
55	7365	67.37112909112	1
55	7395	67.39754609112	0
55	7438	67.397605353827	1
55	7469	67.424021353827	0
55	7485	67.424079353827	1
55	7541	67.450496353827	0
55	7582	67.450555353816	1
55	7626	67.476971353816	0
55	7656	67.47703035381	1
55	7673	67.50344635381	0
55	7697	67.503505883531	1
55	7718	67.529921883531	0
55	7728	67.529979883531	1
55	7789	67.556396883531	0
55	7814	67.556468883521	1
55	7831	67.582884883521	0
55	7847	67.582942883521	1
55	7883	67.609359883521	0
55	7915	67.609418883509	1
55	7955	67.635834883509	0
55	8005	67.635907150643	1
55	8036	67.662323150643	0
55	8046	67.662381150643	1
55	8061	67.688798150643	0
55	8089	67.688857591347	1
55	8106	67.715273591347	0
55	8122	67.715331591347	1
55	8170	67.741748591347	0
55	8213	67.741807591335	1
55	8242	67.768223591335	0
55	8268	67.768282591329	1
55	8285	67.794698591329	0
55	8299	67.794756591329	1
55	8327	67.821173591329	0
55	8372	67.821246031974	1
55	8404	67.847662031974	0
55	8423	67.847733031974	1
55	8502	67.874150031974	0
55	8546	67.874209121104	1
55	8577	67.900625121104	0
55	8602	67.900684121099	1
55	8633	67.927100121099	0
55	8655	67.927159383609	1
55	8676	67.953575383609	0
55	8684	67.953633383609	1
55	8725	67.980050383609	0
55	8744	67.980108383609	1
55	8787	68.006525383609	0
55	8826	68.006584383555	1
55	8870	68.033000383555	0
55	8890	68.033058383555	1
55	8947	68.059475383555	0
55	8966	68.059534824614	1
55	9012	68.085950824614	0
55	9019	68.086034824614	1
55	9064	68.112451824614	0
55	9083	68.112511265678	1
55	9129	68.138927265678	0
55	9137	68.138998265678	1
55	9183	68.165415265678	0
55	9196	68.165486265678	1
55	9267	68.191903265678	0
55	9293	68.191961265678	1
55	9351	68.218378265678	0
55	9364	68.218449265678	1
55	9411	68.244866265678	0
55	9424	68.244963265678	1
55	9458	68.271380265678	0
55	9471	68.271477265678	1
55	9486	68.297894265678	0
55	9522	68.844280936635	1
55	9545	68.844416936635	0
55	9560	69.000007963526	1
55	9581	69.000391963526	0
55	9601	69.844269327408	1
55	9624	69.844405327408	0
55	9639	70.000009350939	1
55	9660	70.000393350939	0
55	9680	70.844270625931	1
55	9703	70.844406625931	0
55	9720	71.000010644743	1
55	9743	71.000394644743	0
55	9759	71.844271832053	1
55	9782	71.844407832053	0
55	9799	72.000011843507	1
55	9822	72.000395843507	0
55	9838	72.844272948467	1
55	9861	72.844408948467	0
55	9878	73.000012950109	1
55	9901	73.000396950109	0
55	9917	73.844273999209	1
55	9940	73.844409999209	0
55	9958	74.000013996382	1
55	9981	74.000397996382	0
55	9997	74.844275018699	1
55	10020	74.844411018699	0
55	10035	75.000002014116	1
55	10056	75.000386014116	0
55	10076	75.844276034821	1
55	10099	75.844412034821	0
55	10114	76.00000303382	1
55	10135	76.00038703382	0
55	10155	76.844277056612	1
55	10178	76.844413056612	0
55	10193	77.000004053722	1
55	10214	77.000388053722	0
55	10234	77.844278078201	1
55	10257	77.844414078201	0
55	10272	78.000005074122	1
55	10293	78.000389074122	0
55	10313	78.844279100323	1
55	10336	78.844415100323	0
55	10351	79.000006093942	1
55	10372	79.000390093942	0
55	10392	79.844280120006	1
55	10415	79.844416120006	0
55	10430	80.000007113795	1
55	10451	80.000391113795	0
55	10471	80.84426814085	1
55	10494	80.84440414085	0
55	10509	81.000008133187	1
55	10530	81.000392133187	0
55	10550	81.844269158978	1
55	10573	81.844405158978	0
55	10588	82.000009151911	1
55	10609	82.000393151911	0
55	10629	82.844270177965	1
55	10652	82.844406177965	0
55	10667	83.000010172844	1
55	10688	83.000394172844	0
55	10708	83.844271203694	1
55	10731	83.844407203694	0
55	10746	84.000011202634	1
55	10767	84.000395202634	0
55	10787	84.844272241029	1
55	10810	84.844408241029	0
55	10825	85.00001224139	1
55	10846	85.00039624139	0
55	10866	85.84427328749	1
55	10889	85.84440928749	0
55	10904	86.000013288584	1
55	10925	86.000397288584	0
55	10945	86.844274341486	1
55	10968	86.844410341486	0
55	10983	87.000001342889	1
55	11004	87.000385342889	0
55	11024	87.844275400961	1
55	11047	87.844411400961	0
55	11062	88.000002402303	1
55	11083	88.000386402303	0
55	11103	88.844276463877	1
55	11126	88.844412463877	0
55	11141	89.000003464707	1
55	11162	89.000387464707	0
55	11182	89.844277528162	1
55	11205	89.844413528162	0
55	11220	90.000004528572	1
55	11241	90.000388528572	0
55	11261	90.844278592841	1
55	11284	90.844414592841	0
55	11299	91.000005593026	1
55	11320	91.000389593026	0
55	11340	91.844279657596	1
55	11363	91.844415657596	0
55	11378	92.000006657697	1
55	11399	92.000390657697	0
55	11419	92.844267722381	1
55	11442	92.844403722381	0
55	11457	93.000007722449	1
55	11478	93.000391722449	0
55	11498	93.844268787175	1
55	11521	93.844404787175	0
55	11536	94.000008787231	1
55	11557	94.000392787231	0
55	11577	94.844269851974	1
55	11600	94.844405851974	0
55	11615	95.000009852025	1
55	11636	95.000393852025	0
55	11656	95.844270916773	1
55	11679	95.844406916773	0
55	11694	96.000010916823	1
55	11715	96.000394916823	0
55	11735	96.844271981573	1
55	11758	96.844407981573	0
55	11773	97.000011981622	1
55	11794	97.000395981622	0
55	11814	97.844273046372	1
55	11837	97.844409046372	0
55	11852	98.000013046421	1
55	11873	98.000397046421	0
55	11893	98.844274111172	1
55	11916	98.844410111172	0
55	11931	99.000001111221	1
55	11952	99.000385111221	0
55	11972	99.844275175972	1
55	11995	99.844411175972	0
57	2154	14.635180590094	1
57	2367	17.635178776933	1
57	3209	20.635170640008	1
57	3360	23.63516904845	1
57	6283	67.000452031798	1
57	6542	67.079877031853	1
57	6711	67.132827561486	1
57	6811	67.159302561486	1
57	7036	67.238740828392	1
57	7150	67.265215828392	1
57	7305	67.34465409112	1
57	7365	67.37112909112	1
57	7485	67.424079353827	1
57	7728	67.529979883531	1
57	7847	67.582942883521	1
57	8046	67.662381150643	1
57	8122	67.715331591347	1
57	8299	67.794756591329	1
57	8423	67.847733031974	1
57	8684	67.953633383609	1
57	8744	67.980108383609	1
57	8890	68.033058383555	1
57	9019	68.086034824614	1
57	9137	68.138998265678	1
57	9196	68.165486265678	1
57	9293	68.191961265678	1
57	9364	68.218449265678	1
57	9424	68.244963265678	1
57	9471	68.271477265678	1
62	2041	13	2414.9020294819
62	2113	14	2411.9226306152
62	2222	15	2407.1557433844
62	2257	16	2402.0904815153
62	2326	17	2395.7145030238
62	2433	18	2387.9756864854
62	2464	19	2379.428618315
62	2527	20	2370.8369102696
62	3272	21	2362.2740193397
62	3299	22	2353.696481556
62	3357	23	2345.1244761638
62	3971	24	2337.3489400438
62	3995	25	2333.9476841083
62	4054	26	2339.5750572737
62	4074	27	2348.8840609972
62	4094	28	2357.9468207365
62	4149	29	2368.9698010738
62	4169	30	2381.0559660961
62	4189	31	2393.1814525785
62	4244	32	2405.3117089416
62	4264	33	2416.6131675828
62	4284	34	2424.0061605449
62	4339	35	2430.593069547
62	4359	36	2432.120427463
62	4379	37	2433.9301476764
62	4434	38	2435.9858892141
62	4454	39	2437.9842269749
62	4474	40	2438.9620851421
62	4529	41	2439.9236937629
62	4549	42	2440.9354464175
62	4569	43	2441.9462290179
62	4624	44	2442.9570710718
62	4644	45	2443.9652697553
62	4664	46	2444.9745678403
62	4719	47	2445.985049726
62	4739	48	2446.9961857509
62	4759	49	2448.0077048509
62	4814	50	2449.017267565
62	4838	51	2450.0288505602
62	4862	52	2450.2412775895
62	4921	53	2449.1293186435
62	4949	54	2448.0170865052
62	4977	55	2446.9037910195
62	5040	56	2445.7908226063
62	5072	57	2444.6776683464
62	5104	58	2443.5644210924
62	5926	59	2442.4527325828
62	5962	60	2441.3391971613
62	5998	61	2440.2694081042
62	6034	62	2439.3282309349
62	6070	63	2438.5931412433
62	6109	64	2436.8453718283
62	6149	65	2429.3256830758
62	6189	66	2417.2588262346
62	6230	67	2403.6494525581
62	8769	68	2389.7216510539
62	9548	69	2375.8077185226
62	9627	70	2361.8813250179
62	9706	71	2347.9583911768
62	9785	72	2334.0314776822
62	9864	73	2320.1001994623
62	9944	74	2306.1655386753
62	10023	75	2292.234422041
62	10102	76	2278.3200143959
62	10181	77	2264.3792101562
62	10260	78	2250.4748495695
62	10339	79	2236.6741053666
62	10418	80	2222.89537094
62	10497	81	2209.4031925965
62	10576	82	2196.211175045
62	10655	83	2183.5930280864
62	10734	84	2173.9746983385
62	10813	85	2167.2461677105
62	10892	86	2162.6975874004
62	10971	87	2159.9862082696
62	11050	88	2158.5945267768
62	11129	89	2157.9755812977
62	11208	90	2157.7341733759
62	11287	91	2157.6446419249
62	11366	92	2157.6112613356
62	11445	93	2157.5989561508
62	11524	94	2157.5944206372
62	11603	95	2157.5927457303
62	11682	96	2157.5921327604
62	11761	97	2157.5919104698
62	11840	98	2157.5918305854
62	11919	99	2157.5918019935
62	11998	100	2157.5917937593
63	2041	13	1578.4413889889
63	2113	14	1579.5354087027
63	2222	15	1581.5597135043
63	2257	16	1586.6901259599
63	2326	17	1593.1481137825
63	2433	18	1600.9864687957
63	2464	19	1609.6434713621
63	2527	20	1618.3456879715
63	3272	21	1627.018716814
63	3299	22	1635.7065809006
63	3357	23	1644.3888414372
63	3971	24	1653.7882440686
63	3995	25	1665.1711418005
63	4054	26	1675.1013692766
63	4074	27	1682.9643419813
63	4094	28	1691.1373657119
63	4149	29	1695.164792031
63	4169	30	1696.8508482501
63	4189	31	1698.1308303922
63	4244	32	1699.2778271362
63	4264	33	1700.346455521
63	4284	34	1700.9774836842
63	4339	35	1703.9305971889
63	4359	36	1713.7761603817
63	4379	37	1725.6850395827
63	4434	38	1739.2128641931
63	4454	39	1753.0029669879
63	4474	40	1766.893577978
63	4529	41	1780.7946177321
63	4549	42	1794.7082118643
63	4569	43	1808.6084658373
63	4624	44	1822.5095374128
63	4644	45	1836.3742574342
63	4664	46	1850.2540963925
63	4719	47	1864.150214944
63	4739	48	1878.0553291999
63	4759	49	1891.965711494
63	4814	50	1905.8491896251
63	4838	51	1919.7604506053
63	4862	52	1933.6661996935
63	4921	53	1947.5448920103
63	4949	54	1961.4269941216
63	4977	55	1975.3223681916
63	5040	56	1989.2136599701
63	5072	57	2003.1072713574
63	5104	58	2017.0020434326
63	5926	59	2030.8773603523
63	5962	60	2044.7757291328
63	5998	61	2058.6569319107
63	6034	62	2072.5625660224
63	6070	63	2086.4713860946
63	6109	64	2100.2695293101
63	6149	65	2111.9133426994
63	6189	66	2118.7659051213
63	6230	67	2120.7794856783
63	8769	68	2120.30906225
63	9548	69	2119.8391072582
63	9627	70	2119.368731386
63	9706	71	2118.8984723669
63	9785	72	2118.4280789318
63	9864	73	2117.9575380739
63	9944	74	2117.4868829679
63	10023	75	2117.0163475676
63	10102	76	2116.5463765282
63	10181	77	2116.0755139217
63	10260	78	2115.6058822302
63	10339	79	2113.9874937031
63	10418	80	2112.033562663
63	10497	81	2108.8124954794
63	10576	82	2104.3383773565
63	10655	83	2100.0588894198
63	10734	84	2095.7349711014
63	10813	85	2091.7739913603
63	10892	86	2089.0963139515
63	10971	87	2087.5001678681
63	11050	88	2086.6809069477
63	11129	89	2086.3165435167
63	11208	90	2086.1744304849
63	11287	91	2086.1217247332
63	11366	92	2086.1020741072
63	11445	93	2086.0948302392
63	11524	94	2086.0921602538
63	11603	95	2086.0911742626
63	11682	96	2086.090813417
63	11761	97	2086.0906825587
63	11840	98	2086.0906355316
63	11919	99	2086.0906186998
63	11998	100	2086.0906138523
64	2113	14	4.1202440707026
64	2222	15	6.098204819389
64	2257	16	8.098487650134
64	2326	17	9.9198503073131
64	2433	18	11.853500083451
64	2464	19	12.143353930573
64	2527	20	12.232212051117
64	3272	21	12.212395286964
64	3299	22	12.224698852695
64	3357	23	12.146972961269
64	3971	24	12.255696941241
64	3995	25	12.161449488824
64	4054	26	12.143464836945
64	4074	27	12.197705111212
64	4094	28	12.175843917349
64	4149	29	12.147356062442
64	4169	30	12.235605009577
64	4189	31	12.23004970376
64	4244	32	12.179280876377
64	4264	33	9.6833337847581
64	4284	34	6.6035563245785
64	4339	35	8.911078451776
64	4359	36	10.922259075935
64	4379	37	12.97262604712
64	4434	38	13.908169620545
64	4454	39	13.943547738914
64	4474	40	13.916770352069
64	4529	41	13.968747933349
64	4549	42	13.968386581719
64	4569	43	13.909594985389
64	4624	44	13.985489140681
64	4644	45	13.884867181559
64	4664	46	13.973042983357
64	4719	47	13.895232723376
64	4739	48	13.979062234708
64	4759	49	13.946557367344
64	4814	50	13.885171144758
64	4838	51	13.966169866193
64	4862	52	13.949480655019
64	4921	53	13.885300111189
64	4949	54	13.993522111119
64	4977	55	13.966571741658
64	5040	56	13.926510586946
64	5072	57	13.908098938749
64	5104	58	13.91633811252
64	5926	59	13.880533665817
64	5962	60	13.972980801386
64	5998	61	13.902911598298
64	6034	62	13.901326999525
64	6070	63	13.905433383591
64	6109	64	13.973261172024
64	6149	65	13.976665152721
64	6189	66	13.998651232829
64	6230	67	13.965553381492
64	8769	68	13.971034862546
64	9548	69	13.886523545813
64	9627	70	13.934083304845
64	9706	71	13.960061270746
64	9785	72	13.931489500275
64	9864	73	13.935840668064
64	9944	74	13.946968317453
64	10023	75	13.988123250885
64	10102	76	13.870423486442
64	10181	77	13.913839612387
64	10260	78	13.92923116046
64	10339	79	13.892308738509
64	10418	80	13.915719505185
64	10497	81	13.92995415759
64	10576	82	13.924761009167
64	10655	83	12.23518451543
64	10734	84	9.3511271514291
64	10813	85	6.6187129071394
64	10892	86	4.2058393123087
64	10971	87	2.3711423662351
64	11050	88	1.1278750298774
64	11129	89	0.46028372579986
64	11208	90	0.17138395287064
64	11287	91	0.064385633015418
64	11366	92	0.0235748719561
64	11445	93	0.0088189032268326
64	11524	94	0.0031716182008931
64	11603	95	0.0011976572718387
64	11682	96	0.00042615865701047
64	11761	97	0.00015376055211115
64	11840	98	5.4597451066089e-05
64	11919	99	2.003805975406e-05
64	11998	100	0
65	2222	15	1.9779607486865
65	2257	16	2.000282830745
65	2326	17	1.8213626571791
65	2433	18	1.9336497761379
65	2464	19	0.28985384712236
65	2527	20	0.088858120543881
65	3272	21	-0.019816764153074
65	3299	22	0.012303565731273
65	3357	23	-0.077725891426672
65	3971	24	0.10872397997184
65	3995	25	-0.094247452416457
65	4054	26	-0.017984651878942
65	4074	27	0.054240274266339
65	4094	28	-0.021861193862279
65	4149	29	-0.028487854907288
65	4169	30	0.088248947134707
65	4189	31	-0.0055553058162339
65	4244	32	-0.050768827383871
65	4264	33	-2.4959470916185
65	4284	34	-3.0797774601796
65	4339	35	2.3075221271976
65	4359	36	2.0111806241586
65	4379	37	2.0503669711854
65	4434	38	0.93554357342459
65	4454	39	0.035378118369263
65	4474	40	-0.026777386844623
65	4529	41	0.051977581279353
65	4549	42	-0.00036135162925355
65	4569	43	-0.058791596330703
65	4624	44	0.075894155292772
65	4644	45	-0.10062195912236
65	4664	46	0.088175801797771
65	4719	47	-0.077810259980616
65	4739	48	0.08382951133186
65	4759	49	-0.032504867364187
65	4814	50	-0.06138622258557
65	4838	51	0.080998721434735
65	4862	52	-0.016689211174381
65	4921	53	-0.064180543830153
65	4949	54	0.10822199993068
65	4977	55	-0.026950369460973
65	5040	56	-0.040061154712458
65	5072	57	-0.018411648196635
65	5104	58	0.0082391737704164
65	5926	59	-0.035804446702823
65	5962	60	0.092447135569527
65	5998	61	-0.070069203088059
65	6034	62	-0.0015845987736256
65	6070	63	0.0041063840664002
65	6109	64	0.067827788433059
65	6149	65	0.0034039806970405
65	6189	66	0.021986080107744
65	6230	67	-0.033097851336933
65	8769	68	0.0054814810538666
65	9548	69	-0.08451131673297
65	9627	70	0.047559759032447
65	9706	71	0.025977965900674
65	9785	72	-0.02857177047059
65	9864	73	0.0043511677882631
65	9944	74	0.011127649389673
65	10023	75	0.041154933432118
65	10102	76	-0.1176997644431
65	10181	77	0.043416125944349
65	10260	78	0.015391548073385
65	10339	79	-0.036922421951312
65	10418	80	0.023410766676534
65	10497	81	0.014234652405138
65	10576	82	-0.0051931484229861
65	10655	83	-1.6895764937371
65	10734	84	-2.8840573640012
65	10813	85	-2.7324142442897
65	10892	86	-2.4128735948307
65	10971	87	-1.8346969460735
65	11050	88	-1.2432673363577
65	11129	89	-0.66759130407757
65	11208	90	-0.28889977292923
65	11287	91	-0.10699831985522
65	11366	92	-0.040810761059318
65	11445	93	-0.014755968729268
65	11524	94	-0.0056472850259395
65	11603	95	-0.0019739609290544
65	11682	96	-0.00077149861482822
65	11761	97	-0.00027239810489932
65	11840	98	-9.9163101045058e-05
65	11919	99	-3.4559391312029e-05
65	11998	100	-2.003805975406e-05
66	2222	15	4.3320714987557
66	2257	16	5.4537605329601
66	2326	17	6.0330113971974
66	2433	18	7.359512948267
66	2464	19	2.7094869184442
66	2527	20	2.1311106015165
66	3272	21	1.8090593183238
66	3299	22	1.9047345245036
66	3357	23	1.6340017935558
66	3971	24	2.1923984174313
66	3995	25	1.5865984392588
66	4054	26	1.8085920852165
66	4074	27	2.0255159107798
66	4094	28	1.7999652572732
66	4149	29	1.7781737467984
66	4169	30	2.1296913537961
66	4189	31	1.8525922369475
66	4244	32	1.7154043192418
66	4264	33	0.973
66	4284	34	0.973
66	4339	35	6.5608032479381
66	4359	36	7.0512167538723
66	4379	37	8.3477496870283
66	4434	38	5.1652816702594
66	4454	39	2.151954771982
66	4474	40	1.940528745875
66	4529	41	2.2106271366951
66	4549	42	2.0343928404431
66	4569	43	1.8325255433806
66	4624	44	2.2931617165723
66	4644	45	1.6903845229658
66	4664	46	2.3330180943258
66	4719	47	1.7675781302578
66	4739	48	2.3191197624919
66	4759	49	1.9241249324384
66	4814	50	1.8217036308443
66	4838	51	2.3080118048219
66	4862	52	1.9775701300285
66	4921	53	1.8123640377939
66	4949	54	2.4031555198124
66	4977	55	1.9447101887125
66	5040	56	1.8968747646758
66	5072	57	1.9677419661877
66	5104	58	2.0579273379489
66	5926	59	1.9068771989553
66	5962	60	2.3473940754528
66	5998	61	1.7941528760312
66	6034	62	2.0234567973163
66	6070	63	2.0429449821818
66	6109	64	2.2645219893428
66	6149	65	2.0479224526271
66	6189	66	2.1128832135052
66	6230	67	1.923922059384
66	8769	68	2.0543365234991
66	9548	69	1.7444294842255
66	9627	70	2.1918152388739
66	9706	71	2.1221573752423
66	9785	72	1.9359100705535
66	9864	73	2.0468970513967
66	9944	74	2.070822150522
66	10023	75	2.1763690767147
66	10102	76	1.6321798963518
66	10181	77	2.1756243743688
66	10260	78	2.0832776554012
66	10339	79	1.9042298616127
66	10418	80	2.1087438630295
66	10497	81	2.0794702565761
66	10576	82	2.0137256344662
66	10655	83	0.973
66	10734	84	0.973
66	10813	85	0.973
66	10892	86	0.973
66	10971	87	0.973
66	11050	88	0.973
66	11129	89	0.973
66	11208	90	0.973
66	11287	91	0.973
66	11366	92	1.1109053848931
66	11445	93	1.1103940622731
66	11524	94	1.1101486823063
66	11603	95	1.1100572052319
66	11682	96	1.1100204786574
66	11761	97	1.110007407315
66	11840	98	1.1100026324763
66	11919	99	1.1100009664691
66	11998	100	0.973

